/*---------------------------------------------------------------------------*\
| =========                 |                                                 |
| \\      /  F ield         | OpenFOAM: The Open Source CFD Toolbox           |
|  \\    /   O peration     | Version:  2406                                  |
|   \\  /    A nd           | Website:  www.openfoam.com                      |
|    \\/     M anipulation  |                                                 |
\*---------------------------------------------------------------------------*/
Build  : _52c02cff-20240620 OPENFOAM=2406 version=2406
Arch   : "LSB;label=32;scalar=64"
Exec   : overPimpleDyMFoam -parallel
Date   : Oct 30 2024
Time   : 11:30:11
Host   : localhost.localdomain
PID    : 272053
I/O    : uncollated
Case   : /home/lollilol/Desktop/falling_seed/background_zone
nProcs : 32
Hosts  :
(
    (localhost.localdomain 32)
)
Pstream initialized with:
    floatTransfer      : false
    maxCommsSize       : 0
    nProcsSimpleSum    : 0
    nonBlockingExchange: 0 (tuning: 0)
    exchange algorithm : 0
    commsType          : nonBlocking
    polling iterations : 0
trapFpe: Floating point exception trapping enabled (FOAM_SIGFPE).
fileModificationChecking : Monitoring run-time modified files using timeStampMaster (fileModificationSkew 5, maxFileModificationPolls 20)
allowSystemOperations : Allowing user-supplied system call operations

// * * * * * * * * * * * * * * * * * * * * * * * * * * * * * * * * * * * * * //
Create time

Create mesh for time = 0

Selecting dynamicFvMesh dynamicOversetFvMesh
Selecting motion solver: sixDoFRigidBodyMotion
Applying motion to entire mesh
Selecting sixDoFSolver CrankNicolson
Translational constraint tensor (0 0 0 0 0 0 0 0 0)
Rotational constraint tensor (0 0 0 0 0 0 0 0 1)

PIMPLE: no residual control data found. Calculations will employ 10 corrector loops

Reading field p

Reading field U

Reading/calculating face flux field phi

Creating cellMask field to block out hole cells

--> FOAM Warning : 
    From bool Foam::oversetPolyPatch::master() const
    in file oversetPolyPatch/oversetPolyPatch.C at line 145
    The master overset patch is not the first patch. Generally the first patch should be an overset patch to guarantee consistent operation.
Creating interpolatedCells field 

Selecting incompressible transport model Newtonian
Selecting turbulence model type laminar
Selecting laminar stress model Stokes
Reading/calculating face velocity Uf

No MRF models present

No finite volume options present
Courant Number mean: 2.41545903471e-06 max: 0.000242424242424

Starting time loop

forces forces1:
    rho: rhoInf
    Freestream density (rhoInf) set to 1.225
    Not including porosity effects

timeActivatedFileUpdate fileUpdate1 output:
    time vs file list:
    -1	"<system>/maxCo0.01"
    0.01	"<system>/maxCo0.02"
    0.04	"<system>/maxCo0.03"
    0.06	"<system>/maxCo0.04"
    0.07	"<system>/maxCo0.05"
    0.09	"<system>/maxCo0.06"
    0.1	"<system>/maxCo0.07"
    0.2	"<system>/maxCo0.08"
    0.3	"<system>/maxCo0.09"
    0.4	"<system>/maxCo0.10"

timeActivatedFileUpdate: copying file
from: "<system>/maxCo0.01"
to  : "<system>/maxCo"


    From virtual bool Foam::regIOobject::readIfModified()
    in file db/regIOobject/regIOobjectRead.C at line 272
        Re-reading object controlDict from file "/home/lollilol/Desktop/falling_seed/background_zone/system/controlDict" because of modified file "/home/lollilol/Desktop/falling_seed/background_zone/system/maxCo"
Courant Number mean: 2.41545903471e-06 max: 0.000242424242424
Time = 1e-05

forces forces:
    rho: rhoInf
    Freestream density (rhoInf) set to 1.225
    Not including porosity effects

6-DoF rigid body motion
    Centre of rotation: (0 0 0)
    Centre of mass: (0 0 0)
    Orientation: (1 0 0 0 1 0 0 0 1)
    Linear velocity: (0 0 0)
    Angular velocity: (0 0 0)
inverseDistance : detected 2 mesh regions
    zone:0 nCells:253304  voxels:(30 30 30) bb:(-0.500001061727 -0.500001061727 -0.800001061727) (1.0617268952e-06 1.06172689521e-06 -0.0079989382731)
    zone:1 nCells:637287  voxels:(30 30 30) bb:(-0.100000160567 -0.100000160567 -0.100000160567) (-0.00399579943318 -0.00799984943318 -0.00999467943318)

 Number of layers : 2
 Average volumetric ratio : 2(0.12476803712 0.129768552215)
 Number of holes cells : 2(20306 20313)
 Using layer : 2

Overset analysis : nCells : 890591
    calculated   : 870214
    interpolated : 20345 (from local:10047  mixed local/remote:9539  remote:759)
    hole         : 32

PIMPLE: iteration 1
DILUPBiCGStab:  Solving for p, Initial residual = 1, Final residual = 1.01905498972, No Iterations 10
time step continuity errors : sum local = 2.45984630681e-06, global = -2.41590711564e-06, cumulative = -2.41590711564e-06
DILUPBiCGStab:  Solving for p, Initial residual = 0.264751401136, Final residual = 0.597528918543, No Iterations 10
time step continuity errors : sum local = 5.08646781224e-06, global = -3.7799358789e-06, cumulative = -6.19584299454e-06
DILUPBiCGStab:  Solving for p, Initial residual = 0.235101216301, Final residual = 0.190901635776, No Iterations 10
time step continuity errors : sum local = 4.25764070749e-06, global = -2.93297932841e-06, cumulative = -9.12882232294e-06
DILUPBiCGStab:  Solving for p, Initial residual = 0.133201011313, Final residual = 0.116257470575, No Iterations 10
time step continuity errors : sum local = 3.86358938066e-06, global = -2.94740465894e-06, cumulative = -1.20762269819e-05
DILUPBiCGStab:  Solving for p, Initial residual = 0.0742096075178, Final residual = 0.0828073651702, No Iterations 10
time step continuity errors : sum local = 4.37953049298e-06, global = -2.76850593574e-06, cumulative = -1.48447329176e-05
DILUPBiCGStab:  Solving for p, Initial residual = 0.0605644755264, Final residual = 1.71904065919, No Iterations 10
time step continuity errors : sum local = 0.000131134692021, global = -4.15947949898e-06, cumulative = -1.90042124166e-05
DILUPBiCGStab:  Solving for p, Initial residual = 0.145402159789, Final residual = 0.013159258526, No Iterations 10
time step continuity errors : sum local = 1.18426411493e-05, global = -3.96029466178e-07, cumulative = -1.94002418828e-05
DILUPBiCGStab:  Solving for p, Initial residual = 0.0211974726238, Final residual = 0.0044853631195, No Iterations 10
time step continuity errors : sum local = 3.36415249854e-06, global = -6.56146364437e-07, cumulative = -2.00563882472e-05
DILUPBiCGStab:  Solving for p, Initial residual = 0.00523136448807, Final residual = 0.00500720434586, No Iterations 10
time step continuity errors : sum local = 3.62428740701e-06, global = -3.44333855888e-07, cumulative = -2.04007221031e-05
DILUPBiCGStab:  Solving for p, Initial residual = 0.0053861920802, Final residual = 5.11543849663e-05, No Iterations 55
time step continuity errors : sum local = 3.52913835853e-08, global = 2.07842841377e-08, cumulative = -2.0379937819e-05
PIMPLE: iteration 2
DILUPBiCGStab:  Solving for p, Initial residual = 0.0015598272843, Final residual = 0.00113346437765, No Iterations 10
time step continuity errors : sum local = 7.96585070629e-07, global = 7.500767976e-07, cumulative = -1.96298610214e-05
DILUPBiCGStab:  Solving for p, Initial residual = 0.00117703923769, Final residual = 0.00256356832124, No Iterations 10
time step continuity errors : sum local = 1.60537752754e-06, global = 1.09785036641e-06, cumulative = -1.8532010655e-05
DILUPBiCGStab:  Solving for p, Initial residual = 0.00260636775341, Final residual = 0.00172235528242, No Iterations 10
time step continuity errors : sum local = 1.13452345244e-06, global = 8.56125890492e-07, cumulative = -1.76758847645e-05
DILUPBiCGStab:  Solving for p, Initial residual = 0.00176311140692, Final residual = 0.0020884502003, No Iterations 10
time step continuity errors : sum local = 1.37566910624e-06, global = 9.17986202835e-07, cumulative = -1.67578985616e-05
DILUPBiCGStab:  Solving for p, Initial residual = 0.00216329767616, Final residual = 0.00175178443683, No Iterations 10
time step continuity errors : sum local = 1.14548681928e-06, global = 8.48105388614e-07, cumulative = -1.5909793173e-05
DILUPBiCGStab:  Solving for p, Initial residual = 0.00181202704661, Final residual = 0.00198343670221, No Iterations 10
time step continuity errors : sum local = 1.2810893538e-06, global = 8.90719311778e-07, cumulative = -1.50190738612e-05
DILUPBiCGStab:  Solving for p, Initial residual = 0.00205889333995, Final residual = 0.00170277403685, No Iterations 10
time step continuity errors : sum local = 1.09517191491e-06, global = 8.23351943267e-07, cumulative = -1.4195721918e-05
DILUPBiCGStab:  Solving for p, Initial residual = 0.00176239366172, Final residual = 0.00194440992914, No Iterations 10
time step continuity errors : sum local = 1.23578672635e-06, global = 8.47344144112e-07, cumulative = -1.33483777739e-05
DILUPBiCGStab:  Solving for p, Initial residual = 0.00201313482774, Final residual = 0.0016169035867, No Iterations 10
time step continuity errors : sum local = 1.0245582122e-06, global = 7.77933264682e-07, cumulative = -1.25704445092e-05
DILUPBiCGStab:  Solving for p, Initial residual = 0.00167915571705, Final residual = 1.49047082508e-05, No Iterations 72
time step continuity errors : sum local = 9.64603808863e-09, global = 2.8060675395e-09, cumulative = -1.25676384416e-05
PIMPLE: iteration 3
DILUPBiCGStab:  Solving for p, Initial residual = 0.00047620585325, Final residual = 3.66464067384e-05, No Iterations 10
time step continuity errors : sum local = 1.72389745397e-08, global = 1.04693202163e-08, cumulative = -1.25571691214e-05
DILUPBiCGStab:  Solving for p, Initial residual = 7.22948110291e-05, Final residual = 3.35355163598e-05, No Iterations 10
time step continuity errors : sum local = 1.58263278394e-08, global = 2.30952772171e-09, cumulative = -1.25548595937e-05
DILUPBiCGStab:  Solving for p, Initial residual = 3.96959968599e-05, Final residual = 1.84645903954e-05, No Iterations 10
time step continuity errors : sum local = 8.55319083017e-09, global = 5.48473373798e-09, cumulative = -1.254937486e-05
DILUPBiCGStab:  Solving for p, Initial residual = 2.07847532196e-05, Final residual = 2.37756800728e-05, No Iterations 10
time step continuity errors : sum local = 1.1236554332e-08, global = 1.41944814216e-09, cumulative = -1.25479554118e-05
DILUPBiCGStab:  Solving for p, Initial residual = 2.52692020065e-05, Final residual = 1.06184450248e-05, No Iterations 10
time step continuity errors : sum local = 5.01135703564e-09, global = 3.80328243077e-09, cumulative = -1.25441521294e-05
DILUPBiCGStab:  Solving for p, Initial residual = 1.24946930947e-05, Final residual = 9.709447831e-06, No Iterations 2
time step continuity errors : sum local = 4.61074578217e-09, global = 3.49805906852e-09, cumulative = -1.25406540703e-05
DILUPBiCGStab:  Solving for p, Initial residual = 1.00611983419e-05, Final residual = 9.08117483089e-06, No Iterations 1
time step continuity errors : sum local = 4.32941378319e-09, global = 3.47251062693e-09, cumulative = -1.25371815597e-05
DILUPBiCGStab:  Solving for p, Initial residual = 9.28949505416e-06, Final residual = 9.28949505416e-06, No Iterations 0
time step continuity errors : sum local = 4.43110512964e-09, global = 3.47284717896e-09, cumulative = -1.25337087125e-05
DILUPBiCGStab:  Solving for p, Initial residual = 9.31667382882e-06, Final residual = 9.31667382882e-06, No Iterations 0
time step continuity errors : sum local = 4.44442004777e-09, global = 3.47284718651e-09, cumulative = -1.25302358653e-05
DILUPBiCGStab:  Solving for p, Initial residual = 9.32098045951e-06, Final residual = 9.84681716098e-08, No Iterations 92
time step continuity errors : sum local = 4.68430270649e-11, global = 1.51638099571e-11, cumulative = -1.25302207015e-05
PIMPLE: iteration 4
DILUPBiCGStab:  Solving for p, Initial residual = 6.35836706196e-05, Final residual = 9.59429180883e-06, No Iterations 8
time step continuity errors : sum local = 4.35395574588e-09, global = -3.09614205834e-09, cumulative = -1.25333168436e-05
DILUPBiCGStab:  Solving for p, Initial residual = 1.29078107892e-05, Final residual = 9.66131229949e-06, No Iterations 1
time step continuity errors : sum local = 4.37952852908e-09, global = -3.05869768728e-09, cumulative = -1.25363755413e-05
DILUPBiCGStab:  Solving for p, Initial residual = 1.01742528905e-05, Final residual = 9.46819310335e-06, No Iterations 1
time step continuity errors : sum local = 4.24677466663e-09, global = -2.97905861845e-09, cumulative = -1.25393545999e-05
DILUPBiCGStab:  Solving for p, Initial residual = 9.48881994181e-06, Final residual = 9.48881994181e-06, No Iterations 0
time step continuity errors : sum local = 4.25641103973e-09, global = -2.97972593753e-09, cumulative = -1.25423343258e-05
DILUPBiCGStab:  Solving for p, Initial residual = 9.5156190773e-06, Final residual = 9.5156190773e-06, No Iterations 0
time step continuity errors : sum local = 4.26952537687e-09, global = -2.97972603743e-09, cumulative = -1.25453140519e-05
DILUPBiCGStab:  Solving for p, Initial residual = 9.51917717489e-06, Final residual = 9.51917717489e-06, No Iterations 0
time step continuity errors : sum local = 4.27126655643e-09, global = -2.97972603778e-09, cumulative = -1.25482937779e-05
DILUPBiCGStab:  Solving for p, Initial residual = 9.51970793703e-06, Final residual = 9.51970793703e-06, No Iterations 0
time step continuity errors : sum local = 4.27152628605e-09, global = -2.97972603778e-09, cumulative = -1.25512735039e-05
DILUPBiCGStab:  Solving for p, Initial residual = 9.52144514931e-06, Final residual = 9.52144514931e-06, No Iterations 0
time step continuity errors : sum local = 4.27237641189e-09, global = -2.97972603778e-09, cumulative = -1.255425323e-05
DILUPBiCGStab:  Solving for p, Initial residual = 9.52243555602e-06, Final residual = 9.52243555602e-06, No Iterations 0
time step continuity errors : sum local = 4.27286107965e-09, global = -2.97972603778e-09, cumulative = -1.2557232956e-05
DILUPBiCGStab:  Solving for p, Initial residual = 9.52259421227e-06, Final residual = 7.53109428044e-08, No Iterations 109
time step continuity errors : sum local = 3.52081483791e-11, global = -1.06427815235e-11, cumulative = -1.25572435988e-05
PIMPLE: iteration 5
DILUPBiCGStab:  Solving for p, Initial residual = 1.26191419904e-05, Final residual = 4.08456347e-06, No Iterations 1
time step continuity errors : sum local = 1.7029732755e-09, global = -1.24671065955e-10, cumulative = -1.25573682699e-05
DILUPBiCGStab:  Solving for p, Initial residual = 4.35060437824e-06, Final residual = 4.35060437824e-06, No Iterations 0
time step continuity errors : sum local = 1.83338855932e-09, global = -1.29760201853e-10, cumulative = -1.25574980301e-05
DILUPBiCGStab:  Solving for p, Initial residual = 4.46855689404e-06, Final residual = 4.46855689404e-06, No Iterations 0
time step continuity errors : sum local = 1.89114211675e-09, global = -1.29760052063e-10, cumulative = -1.25576277901e-05
DILUPBiCGStab:  Solving for p, Initial residual = 4.49453140801e-06, Final residual = 4.49453140801e-06, No Iterations 0
time step continuity errors : sum local = 1.90386020515e-09, global = -1.29760050752e-10, cumulative = -1.25577575502e-05
DILUPBiCGStab:  Solving for p, Initial residual = 4.50088068426e-06, Final residual = 4.50088068426e-06, No Iterations 0
time step continuity errors : sum local = 1.90696904812e-09, global = -1.2976005075e-10, cumulative = -1.25578873102e-05
DILUPBiCGStab:  Solving for p, Initial residual = 4.50493185633e-06, Final residual = 4.50493185633e-06, No Iterations 0
time step continuity errors : sum local = 1.90895265495e-09, global = -1.2976005075e-10, cumulative = -1.25580170703e-05
DILUPBiCGStab:  Solving for p, Initial residual = 4.50665920548e-06, Final residual = 4.50665920548e-06, No Iterations 0
time step continuity errors : sum local = 1.90979843036e-09, global = -1.2976005075e-10, cumulative = -1.25581468303e-05
DILUPBiCGStab:  Solving for p, Initial residual = 4.50686524486e-06, Final residual = 4.50686524486e-06, No Iterations 0
time step continuity errors : sum local = 1.90989931491e-09, global = -1.2976005075e-10, cumulative = -1.25582765904e-05
DILUPBiCGStab:  Solving for p, Initial residual = 4.50687965639e-06, Final residual = 4.50687965639e-06, No Iterations 0
time step continuity errors : sum local = 1.9099063713e-09, global = -1.2976005075e-10, cumulative = -1.25584063504e-05
DILUPBiCGStab:  Solving for p, Initial residual = 4.50698050473e-06, Final residual = 9.45610969442e-08, No Iterations 81
time step continuity errors : sum local = 4.44106654828e-11, global = -4.12249623717e-11, cumulative = -1.25584475754e-05
PIMPLE: iteration 6
DILUPBiCGStab:  Solving for p, Initial residual = 3.55350232892e-06, Final residual = 3.55350232892e-06, No Iterations 0
time step continuity errors : sum local = 1.75200283828e-09, global = -9.26655910746e-11, cumulative = -1.2558540241e-05
DILUPBiCGStab:  Solving for p, Initial residual = 3.66283233896e-06, Final residual = 3.66283233896e-06, No Iterations 0
time step continuity errors : sum local = 1.80553603337e-09, global = -9.26662779381e-11, cumulative = -1.25586329073e-05
DILUPBiCGStab:  Solving for p, Initial residual = 3.67503595449e-06, Final residual = 3.67503595449e-06, No Iterations 0
time step continuity errors : sum local = 1.81151159913e-09, global = -9.26662657968e-11, cumulative = -1.25587255735e-05
DILUPBiCGStab:  Solving for p, Initial residual = 3.67619817957e-06, Final residual = 3.67619817957e-06, No Iterations 0
time step continuity errors : sum local = 1.81208068223e-09, global = -9.26662657956e-11, cumulative = -1.25588182398e-05
DILUPBiCGStab:  Solving for p, Initial residual = 3.67793552445e-06, Final residual = 3.67793552445e-06, No Iterations 0
time step continuity errors : sum local = 1.81293138655e-09, global = -9.26662657956e-11, cumulative = -1.25589109061e-05
DILUPBiCGStab:  Solving for p, Initial residual = 3.6786377654e-06, Final residual = 3.6786377654e-06, No Iterations 0
time step continuity errors : sum local = 1.81327524513e-09, global = -9.26662657956e-11, cumulative = -1.25590035723e-05
DILUPBiCGStab:  Solving for p, Initial residual = 3.6785647675e-06, Final residual = 3.6785647675e-06, No Iterations 0
time step continuity errors : sum local = 1.81323950096e-09, global = -9.26662657956e-11, cumulative = -1.25590962386e-05
DILUPBiCGStab:  Solving for p, Initial residual = 3.67850185257e-06, Final residual = 3.67850185257e-06, No Iterations 0
time step continuity errors : sum local = 1.81320869393e-09, global = -9.26662657956e-11, cumulative = -1.25591889049e-05
DILUPBiCGStab:  Solving for p, Initial residual = 3.67855440113e-06, Final residual = 3.67855440113e-06, No Iterations 0
time step continuity errors : sum local = 1.81323442477e-09, global = -9.26662657956e-11, cumulative = -1.25592815711e-05
DILUPBiCGStab:  Solving for p, Initial residual = 3.678587514e-06, Final residual = 9.49405794154e-08, No Iterations 49
time step continuity errors : sum local = 4.49350965799e-11, global = -3.30933931345e-11, cumulative = -1.25593146645e-05
PIMPLE: iteration 7
DILUPBiCGStab:  Solving for p, Initial residual = 1.16414897571e-06, Final residual = 1.16414897571e-06, No Iterations 0
time step continuity errors : sum local = 5.72647716427e-10, global = -3.94587059301e-11, cumulative = -1.25593541232e-05
DILUPBiCGStab:  Solving for p, Initial residual = 1.21715247496e-06, Final residual = 1.21715247496e-06, No Iterations 0
time step continuity errors : sum local = 5.98603371984e-10, global = -3.94586225886e-11, cumulative = -1.25593935818e-05
DILUPBiCGStab:  Solving for p, Initial residual = 1.22586959687e-06, Final residual = 1.22586959687e-06, No Iterations 0
time step continuity errors : sum local = 6.02871953553e-10, global = -3.94586176818e-11, cumulative = -1.25594330405e-05
DILUPBiCGStab:  Solving for p, Initial residual = 1.22745818003e-06, Final residual = 1.22745818003e-06, No Iterations 0
time step continuity errors : sum local = 6.03649847424e-10, global = -3.9458617682e-11, cumulative = -1.25594724991e-05
DILUPBiCGStab:  Solving for p, Initial residual = 1.22872663909e-06, Final residual = 1.22872663909e-06, No Iterations 0
time step continuity errors : sum local = 6.0427098493e-10, global = -3.9458617682e-11, cumulative = -1.25595119577e-05
DILUPBiCGStab:  Solving for p, Initial residual = 1.22932662152e-06, Final residual = 1.22932662152e-06, No Iterations 0
time step continuity errors : sum local = 6.04564783776e-10, global = -3.9458617682e-11, cumulative = -1.25595514163e-05
DILUPBiCGStab:  Solving for p, Initial residual = 1.22939341839e-06, Final residual = 1.22939341839e-06, No Iterations 0
time step continuity errors : sum local = 6.04597492807e-10, global = -3.9458617682e-11, cumulative = -1.25595908749e-05
DILUPBiCGStab:  Solving for p, Initial residual = 1.22937237941e-06, Final residual = 1.22937237941e-06, No Iterations 0
time step continuity errors : sum local = 6.04587190436e-10, global = -3.9458617682e-11, cumulative = -1.25596303335e-05
DILUPBiCGStab:  Solving for p, Initial residual = 1.22939661933e-06, Final residual = 1.22939661933e-06, No Iterations 0
time step continuity errors : sum local = 6.04599060216e-10, global = -3.9458617682e-11, cumulative = -1.25596697922e-05
DILUPBiCGStab:  Solving for p, Initial residual = 1.22941830525e-06, Final residual = 9.07233745164e-08, No Iterations 46
time step continuity errors : sum local = 4.38455347639e-11, global = -2.85905698046e-11, cumulative = -1.25596983827e-05
PIMPLE: iteration 8
DILUPBiCGStab:  Solving for p, Initial residual = 4.53981464206e-07, Final residual = 4.53981464206e-07, No Iterations 0
time step continuity errors : sum local = 2.22841418398e-10, global = -3.01585819433e-11, cumulative = -1.25597285413e-05
DILUPBiCGStab:  Solving for p, Initial residual = 4.80354984845e-07, Final residual = 4.80354984845e-07, No Iterations 0
time step continuity errors : sum local = 2.35757329326e-10, global = -3.01584506485e-11, cumulative = -1.25597586998e-05
DILUPBiCGStab:  Solving for p, Initial residual = 4.86370356835e-07, Final residual = 4.86370356835e-07, No Iterations 0
time step continuity errors : sum local = 2.38703191567e-10, global = -3.01584495214e-11, cumulative = -1.25597888582e-05
DILUPBiCGStab:  Solving for p, Initial residual = 4.88065931338e-07, Final residual = 4.88065931338e-07, No Iterations 0
time step continuity errors : sum local = 2.39533552584e-10, global = -3.01584495213e-11, cumulative = -1.25598190167e-05
DILUPBiCGStab:  Solving for p, Initial residual = 4.88866757546e-07, Final residual = 4.88866757546e-07, No Iterations 0
time step continuity errors : sum local = 2.39925735341e-10, global = -3.01584495213e-11, cumulative = -1.25598491751e-05
DILUPBiCGStab:  Solving for p, Initial residual = 4.89139850068e-07, Final residual = 4.89139850068e-07, No Iterations 0
time step continuity errors : sum local = 2.40059474977e-10, global = -3.01584495213e-11, cumulative = -1.25598793336e-05
DILUPBiCGStab:  Solving for p, Initial residual = 4.89170854533e-07, Final residual = 4.89170854533e-07, No Iterations 0
time step continuity errors : sum local = 2.40074658574e-10, global = -3.01584495213e-11, cumulative = -1.2559909492e-05
DILUPBiCGStab:  Solving for p, Initial residual = 4.89176148318e-07, Final residual = 4.89176148318e-07, No Iterations 0
time step continuity errors : sum local = 2.40077251059e-10, global = -3.01584495213e-11, cumulative = -1.25599396505e-05
DILUPBiCGStab:  Solving for p, Initial residual = 4.89187905097e-07, Final residual = 4.89187905097e-07, No Iterations 0
time step continuity errors : sum local = 2.40083008621e-10, global = -3.01584495213e-11, cumulative = -1.25599698089e-05
DILUPBiCGStab:  Solving for p, Initial residual = 4.89193077781e-07, Final residual = 9.85250223422e-08, No Iterations 9
time step continuity errors : sum local = 4.77077294889e-11, global = -2.41318088528e-11, cumulative = -1.25599939407e-05
PIMPLE: iteration 9
DILUPBiCGStab:  Solving for p, Initial residual = 2.38777281053e-07, Final residual = 2.38777281053e-07, No Iterations 0
time step continuity errors : sum local = 1.16667052703e-10, global = -2.42776507894e-11, cumulative = -1.25600182184e-05
DILUPBiCGStab:  Solving for p, Initial residual = 2.50769993166e-07, Final residual = 2.50769993166e-07, No Iterations 0
time step continuity errors : sum local = 1.22540240912e-10, global = -2.42776011024e-11, cumulative = -1.2560042496e-05
DILUPBiCGStab:  Solving for p, Initial residual = 2.53839370363e-07, Final residual = 2.53839370363e-07, No Iterations 0
time step continuity errors : sum local = 1.24043395116e-10, global = -2.42776008173e-11, cumulative = -1.25600667736e-05
DILUPBiCGStab:  Solving for p, Initial residual = 2.54696016371e-07, Final residual = 2.54696016371e-07, No Iterations 0
time step continuity errors : sum local = 1.24462917124e-10, global = -2.42776008172e-11, cumulative = -1.25600910512e-05
DILUPBiCGStab:  Solving for p, Initial residual = 2.55052378061e-07, Final residual = 2.55052378061e-07, No Iterations 0
time step continuity errors : sum local = 1.2463743681e-10, global = -2.42776008172e-11, cumulative = -1.25601153288e-05
DILUPBiCGStab:  Solving for p, Initial residual = 2.55165703559e-07, Final residual = 2.55165703559e-07, No Iterations 0
time step continuity errors : sum local = 1.24692935289e-10, global = -2.42776008172e-11, cumulative = -1.25601396064e-05
DILUPBiCGStab:  Solving for p, Initial residual = 2.55176341035e-07, Final residual = 2.55176341035e-07, No Iterations 0
time step continuity errors : sum local = 1.2469814474e-10, global = -2.42776008172e-11, cumulative = -1.2560163884e-05
DILUPBiCGStab:  Solving for p, Initial residual = 2.55173946649e-07, Final residual = 2.55173946649e-07, No Iterations 0
time step continuity errors : sum local = 1.24696972147e-10, global = -2.42776008172e-11, cumulative = -1.25601881616e-05
DILUPBiCGStab:  Solving for p, Initial residual = 2.55177513592e-07, Final residual = 2.55177513592e-07, No Iterations 0
time step continuity errors : sum local = 1.24698718973e-10, global = -2.42776008172e-11, cumulative = -1.25602124392e-05
DILUPBiCGStab:  Solving for p, Initial residual = 2.55180227104e-07, Final residual = 9.59773195006e-08, No Iterations 2
time step continuity errors : sum local = 4.63751056654e-11, global = -2.30109701654e-11, cumulative = -1.25602354501e-05
PIMPLE: iteration 10
DILUPBiCGStab:  Solving for p, Initial residual = 1.32009447308e-07, Final residual = 1.32009447308e-07, No Iterations 0
time step continuity errors : sum local = 6.40531369933e-11, global = -2.3024895927e-11, cumulative = -1.2560258475e-05
DILUPBiCGStab:  Solving for p, Initial residual = 1.38890108487e-07, Final residual = 1.38890108487e-07, No Iterations 0
time step continuity errors : sum local = 6.74227613943e-11, global = -2.30248874269e-11, cumulative = -1.25602814999e-05
DILUPBiCGStab:  Solving for p, Initial residual = 1.4103104199e-07, Final residual = 1.4103104199e-07, No Iterations 0
time step continuity errors : sum local = 6.84712330785e-11, global = -2.30248873322e-11, cumulative = -1.25603045248e-05
DILUPBiCGStab:  Solving for p, Initial residual = 1.41725438738e-07, Final residual = 1.41725438738e-07, No Iterations 0
time step continuity errors : sum local = 6.88112974944e-11, global = -2.30248873321e-11, cumulative = -1.25603275497e-05
DILUPBiCGStab:  Solving for p, Initial residual = 1.41990765996e-07, Final residual = 1.41990765996e-07, No Iterations 0
time step continuity errors : sum local = 6.894123526e-11, global = -2.30248873321e-11, cumulative = -1.25603505746e-05
DILUPBiCGStab:  Solving for p, Initial residual = 1.42073714314e-07, Final residual = 1.42073714314e-07, No Iterations 0
time step continuity errors : sum local = 6.89818572422e-11, global = -2.30248873321e-11, cumulative = -1.25603735995e-05
DILUPBiCGStab:  Solving for p, Initial residual = 1.42090312345e-07, Final residual = 1.42090312345e-07, No Iterations 0
time step continuity errors : sum local = 6.89899857369e-11, global = -2.30248873321e-11, cumulative = -1.25603966244e-05
DILUPBiCGStab:  Solving for p, Initial residual = 1.42093813491e-07, Final residual = 1.42093813491e-07, No Iterations 0
time step continuity errors : sum local = 6.89917003406e-11, global = -2.30248873321e-11, cumulative = -1.25604196493e-05
DILUPBiCGStab:  Solving for p, Initial residual = 1.42096136179e-07, Final residual = 1.42096136179e-07, No Iterations 0
time step continuity errors : sum local = 6.89928378225e-11, global = -2.30248873321e-11, cumulative = -1.25604426741e-05
DILUPBiCGStab:  Solving for p, Initial residual = 1.42097060043e-07, Final residual = 9.78062080365e-08, No Iterations 1
time step continuity errors : sum local = 4.75517174859e-11, global = -2.27019572972e-11, cumulative = -1.25604653761e-05
ExecutionTime = 10.78 s  ClockTime = 11 s

forces forces1 write:
    Sum of forces
        Total    : (0.0222233945005 -0.0166897669958 0.15715618593)
        Pressure : (0.0222353959643 -0.0167001611011 0.157064372453)
        Viscous  : (-1.20014638543e-05 1.03941053759e-05 9.18134765933e-05)
    Sum of moments
        Total    : (-0.000245658453561 0.00123305001887 0.000182973195315)
        Pressure : (-0.000245513115944 0.00123268316644 0.000183095423108)
        Viscous  : (-1.45337617936e-07 3.6685243487e-07 -1.22227793408e-07)
    writing force and moment files.

Courant Number mean: 0.000544324661567 max: 9.48400225987
Time = 2e-05

forces forces:
    rho: rhoInf
    Freestream density (rhoInf) set to 1.225
    Not including porosity effects

6-DoF rigid body motion
    Centre of rotation: (0 0 0)
    Centre of mass: (0 0 0)
    Orientation: (1 -4.51337122281e-07 0 4.51337122281e-07 1 0 0 0 1)
    Linear velocity: (0 0 0)
    Angular velocity: (0 0 0.0902674244563)
inverseDistance : detected 2 mesh regions
    zone:0 nCells:253304  voxels:(30 30 30) bb:(-0.500001061727 -0.500001061727 -0.800001061727) (1.0617268952e-06 1.06172689521e-06 -0.0079989382731)
    zone:1 nCells:637287  voxels:(30 30 30) bb:(-0.100000156986 -0.100000205362 -0.100000160567) (-0.00399579582207 -0.0079998712301 -0.00999467943317)

 Number of layers : 2
 Average volumetric ratio : 2(0.12476803712 0.12976855222)
 Number of holes cells : 2(20306 20313)
 Using layer : 2

Overset analysis : nCells : 890591
    calculated   : 870214
    interpolated : 20345 (from local:10036  mixed local/remote:9549  remote:760)
    hole         : 32

PIMPLE: iteration 1
DILUPBiCGStab:  Solving for p, Initial residual = 0.00679280376821, Final residual = 0.00550539549305, No Iterations 10
time step continuity errors : sum local = 1.78862119334e-06, global = 1.69500610909e-06, cumulative = -1.0865459267e-05
DILUPBiCGStab:  Solving for p, Initial residual = 0.00552353909289, Final residual = 0.0120211303549, No Iterations 10
time step continuity errors : sum local = 3.51516066246e-06, global = 2.52589811436e-06, cumulative = -8.33956115265e-06
DILUPBiCGStab:  Solving for p, Initial residual = 0.0123207827363, Final residual = 0.00905019924934, No Iterations 10
time step continuity errors : sum local = 2.70499351178e-06, global = 1.95548177104e-06, cumulative = -6.38407938161e-06
DILUPBiCGStab:  Solving for p, Initial residual = 0.00944992767887, Final residual = 0.0104182230734, No Iterations 10
time step continuity errors : sum local = 3.07388596035e-06, global = 2.10759771661e-06, cumulative = -4.276481665e-06
DILUPBiCGStab:  Solving for p, Initial residual = 0.0111768916439, Final residual = 0.00937542831479, No Iterations 10
time step continuity errors : sum local = 2.66951048308e-06, global = 1.94677443353e-06, cumulative = -2.32970723147e-06
DILUPBiCGStab:  Solving for p, Initial residual = 0.00997774397176, Final residual = 0.0109146230645, No Iterations 10
time step continuity errors : sum local = 2.95809579305e-06, global = 1.99116918522e-06, cumulative = -3.38538046253e-07
DILUPBiCGStab:  Solving for p, Initial residual = 0.0118446000174, Final residual = 0.00861080954308, No Iterations 10
time step continuity errors : sum local = 2.22641464749e-06, global = 1.88434730801e-06, cumulative = 1.54580926176e-06
DILUPBiCGStab:  Solving for p, Initial residual = 0.00922579971366, Final residual = 0.0116544445176, No Iterations 10
time step continuity errors : sum local = 2.88118375377e-06, global = 1.90922456262e-06, cumulative = 3.45503382438e-06
DILUPBiCGStab:  Solving for p, Initial residual = 0.0128407138537, Final residual = 0.0100855405403, No Iterations 10
time step continuity errors : sum local = 2.33123402328e-06, global = 1.77692730309e-06, cumulative = 5.23196112747e-06
DILUPBiCGStab:  Solving for p, Initial residual = 0.0108055835828, Final residual = 8.10332142821e-05, No Iterations 73
time step continuity errors : sum local = 1.84337315978e-08, global = 4.58257833e-09, cumulative = 5.2365437058e-06
PIMPLE: iteration 2
DILUPBiCGStab:  Solving for p, Initial residual = 0.00348625173283, Final residual = 0.000248615133547, No Iterations 10
time step continuity errors : sum local = 3.92081293431e-08, global = 3.10704979626e-08, cumulative = 5.26761420376e-06
DILUPBiCGStab:  Solving for p, Initial residual = 0.0004539900765, Final residual = 0.000247022867214, No Iterations 10
time step continuity errors : sum local = 3.99415096924e-08, global = 1.10677930769e-08, cumulative = 5.27868199684e-06
DILUPBiCGStab:  Solving for p, Initial residual = 0.000276553124028, Final residual = 0.000163601335305, No Iterations 10
time step continuity errors : sum local = 2.55083018401e-08, global = 2.11473064384e-08, cumulative = 5.29982930328e-06
DILUPBiCGStab:  Solving for p, Initial residual = 0.000174728358287, Final residual = 0.000240446110681, No Iterations 10
time step continuity errors : sum local = 3.80154020128e-08, global = 8.80461246497e-09, cumulative = 5.30863391574e-06
DILUPBiCGStab:  Solving for p, Initial residual = 0.000249531846351, Final residual = 0.00012578268352, No Iterations 10
time step continuity errors : sum local = 1.98139395387e-08, global = 1.75841679546e-08, cumulative = 5.3262180837e-06
DILUPBiCGStab:  Solving for p, Initial residual = 0.000138338225376, Final residual = 0.000243426145942, No Iterations 10
time step continuity errors : sum local = 3.8109208157e-08, global = 7.34917321008e-09, cumulative = 5.33356725691e-06
DILUPBiCGStab:  Solving for p, Initial residual = 0.000251541920339, Final residual = 0.000106882022667, No Iterations 10
time step continuity errors : sum local = 1.68892340831e-08, global = 1.53255204162e-08, cumulative = 5.34889277732e-06
DILUPBiCGStab:  Solving for p, Initial residual = 0.000121780639607, Final residual = 0.000251258155863, No Iterations 10
time step continuity errors : sum local = 3.94027018712e-08, global = 5.88836430739e-09, cumulative = 5.35478114163e-06
DILUPBiCGStab:  Solving for p, Initial residual = 0.000259347678058, Final residual = 9.02693881665e-05, No Iterations 10
time step continuity errors : sum local = 1.43696085886e-08, global = 1.31405895981e-08, cumulative = 5.36792173123e-06
DILUPBiCGStab:  Solving for p, Initial residual = 0.000108670431835, Final residual = 9.18000421821e-07, No Iterations 90
time step continuity errors : sum local = 1.48621649717e-10, global = -3.20971924889e-11, cumulative = 5.36788963403e-06
PIMPLE: iteration 3
DILUPBiCGStab:  Solving for p, Initial residual = 0.000453143100628, Final residual = 4.86833103198e-05, No Iterations 10
time step continuity errors : sum local = 7.74213203678e-09, global = -5.68410474926e-09, cumulative = 5.36220552929e-06
DILUPBiCGStab:  Solving for p, Initial residual = 6.15825526607e-05, Final residual = 4.45553818376e-05, No Iterations 10
time step continuity errors : sum local = 7.22619400975e-09, global = -2.17583213129e-09, cumulative = 5.36002969715e-06
DILUPBiCGStab:  Solving for p, Initial residual = 4.65529323383e-05, Final residual = 3.4926318421e-05, No Iterations 10
time step continuity errors : sum local = 5.70198324526e-09, global = -3.93221703925e-09, cumulative = 5.35609748011e-06
DILUPBiCGStab:  Solving for p, Initial residual = 3.67006344013e-05, Final residual = 2.97117394161e-05, No Iterations 10
time step continuity errors : sum local = 4.89621834815e-09, global = -2.15785960787e-09, cumulative = 5.35393962051e-06
DILUPBiCGStab:  Solving for p, Initial residual = 3.14902051812e-05, Final residual = 2.65815966221e-05, No Iterations 10
time step continuity errors : sum local = 4.30415464104e-09, global = -3.33448379036e-09, cumulative = 5.35060513672e-06
DILUPBiCGStab:  Solving for p, Initial residual = 2.83979182941e-05, Final residual = 2.69648889741e-05, No Iterations 10
time step continuity errors : sum local = 4.36705934243e-09, global = -1.95295153311e-09, cumulative = 5.34865218518e-06
DILUPBiCGStab:  Solving for p, Initial residual = 2.85359922679e-05, Final residual = 2.19079064954e-05, No Iterations 10
time step continuity errors : sum local = 3.54713697145e-09, global = -2.91760739696e-09, cumulative = 5.34573457779e-06
DILUPBiCGStab:  Solving for p, Initial residual = 2.36383797124e-05, Final residual = 2.45910814551e-05, No Iterations 10
time step continuity errors : sum local = 3.98922894186e-09, global = -1.83340570427e-09, cumulative = 5.34390117208e-06
DILUPBiCGStab:  Solving for p, Initial residual = 2.59975794648e-05, Final residual = 1.92493669178e-05, No Iterations 10
time step continuity errors : sum local = 3.10410336766e-09, global = -2.61811921534e-09, cumulative = 5.34128305287e-06
DILUPBiCGStab:  Solving for p, Initial residual = 2.09500161988e-05, Final residual = 1.7078660957e-07, No Iterations 74
time step continuity errors : sum local = 2.81485052353e-11, global = -4.8058802026e-12, cumulative = 5.34127824699e-06
PIMPLE: iteration 4
DILUPBiCGStab:  Solving for p, Initial residual = 8.52372143652e-05, Final residual = 6.71468805254e-06, No Iterations 2
time step continuity errors : sum local = 7.42407673005e-10, global = -1.90159538094e-10, cumulative = 5.34108808745e-06
DILUPBiCGStab:  Solving for p, Initial residual = 8.27167822023e-06, Final residual = 8.27167822023e-06, No Iterations 0
time step continuity errors : sum local = 1.00585176212e-09, global = -2.06250746043e-10, cumulative = 5.3408818367e-06
DILUPBiCGStab:  Solving for p, Initial residual = 8.28724474871e-06, Final residual = 8.28724474871e-06, No Iterations 0
time step continuity errors : sum local = 1.0084606925e-09, global = -2.06250714298e-10, cumulative = 5.34067558599e-06
DILUPBiCGStab:  Solving for p, Initial residual = 8.29052831567e-06, Final residual = 8.29052831567e-06, No Iterations 0
time step continuity errors : sum local = 1.00901103978e-09, global = -2.06250714227e-10, cumulative = 5.34046933527e-06
DILUPBiCGStab:  Solving for p, Initial residual = 8.29143945522e-06, Final residual = 8.29143945522e-06, No Iterations 0
time step continuity errors : sum local = 1.00916375269e-09, global = -2.06250714226e-10, cumulative = 5.34026308456e-06
DILUPBiCGStab:  Solving for p, Initial residual = 8.29172052495e-06, Final residual = 8.29172052495e-06, No Iterations 0
time step continuity errors : sum local = 1.00921086182e-09, global = -2.06250714226e-10, cumulative = 5.34005683385e-06
DILUPBiCGStab:  Solving for p, Initial residual = 8.29179152536e-06, Final residual = 8.29179152536e-06, No Iterations 0
time step continuity errors : sum local = 1.00922276196e-09, global = -2.06250714226e-10, cumulative = 5.33985058313e-06
DILUPBiCGStab:  Solving for p, Initial residual = 8.2918062466e-06, Final residual = 8.2918062466e-06, No Iterations 0
time step continuity errors : sum local = 1.00922522934e-09, global = -2.06250714226e-10, cumulative = 5.33964433242e-06
DILUPBiCGStab:  Solving for p, Initial residual = 8.29180975931e-06, Final residual = 8.29180975931e-06, No Iterations 0
time step continuity errors : sum local = 1.00922581809e-09, global = -2.06250714226e-10, cumulative = 5.3394380817e-06
DILUPBiCGStab:  Solving for p, Initial residual = 8.29181085498e-06, Final residual = 9.91062121357e-08, No Iterations 116
time step continuity errors : sum local = 1.65316947443e-11, global = -9.27841308572e-12, cumulative = 5.33942880329e-06
PIMPLE: iteration 5
DILUPBiCGStab:  Solving for p, Initial residual = 1.99417016731e-05, Final residual = 5.42981962731e-06, No Iterations 1
time step continuity errors : sum local = 7.71116357426e-10, global = -5.37655209617e-11, cumulative = 5.33937503777e-06
DILUPBiCGStab:  Solving for p, Initial residual = 5.46631620575e-06, Final residual = 5.46631620575e-06, No Iterations 0
time step continuity errors : sum local = 7.77485118534e-10, global = -5.63215543317e-11, cumulative = 5.33931871621e-06
DILUPBiCGStab:  Solving for p, Initial residual = 5.47079549439e-06, Final residual = 5.47079549439e-06, No Iterations 0
time step continuity errors : sum local = 7.78235627649e-10, global = -5.63215724804e-11, cumulative = 5.33926239464e-06
DILUPBiCGStab:  Solving for p, Initial residual = 5.4715855381e-06, Final residual = 5.4715855381e-06, No Iterations 0
time step continuity errors : sum local = 7.78368008337e-10, global = -5.63215724713e-11, cumulative = 5.33920607307e-06
DILUPBiCGStab:  Solving for p, Initial residual = 5.47173448616e-06, Final residual = 5.47173448616e-06, No Iterations 0
time step continuity errors : sum local = 7.78392966218e-10, global = -5.63215724713e-11, cumulative = 5.3391497515e-06
DILUPBiCGStab:  Solving for p, Initial residual = 5.47177626808e-06, Final residual = 5.47177626808e-06, No Iterations 0
time step continuity errors : sum local = 7.78399967242e-10, global = -5.63215724713e-11, cumulative = 5.33909342992e-06
DILUPBiCGStab:  Solving for p, Initial residual = 5.47178829657e-06, Final residual = 5.47178829657e-06, No Iterations 0
time step continuity errors : sum local = 7.7840198275e-10, global = -5.63215724713e-11, cumulative = 5.33903710835e-06
DILUPBiCGStab:  Solving for p, Initial residual = 5.47179088671e-06, Final residual = 5.47179088671e-06, No Iterations 0
time step continuity errors : sum local = 7.78402416759e-10, global = -5.63215724713e-11, cumulative = 5.33898078678e-06
DILUPBiCGStab:  Solving for p, Initial residual = 5.47179135259e-06, Final residual = 5.47179135259e-06, No Iterations 0
time step continuity errors : sum local = 7.78402494822e-10, global = -5.63215724713e-11, cumulative = 5.33892446521e-06
DILUPBiCGStab:  Solving for p, Initial residual = 5.47179143477e-06, Final residual = 9.44476116862e-08, No Iterations 73
time step continuity errors : sum local = 1.50871238269e-11, global = -7.32418841917e-12, cumulative = 5.33891714102e-06
PIMPLE: iteration 6
DILUPBiCGStab:  Solving for p, Initial residual = 4.90210518022e-06, Final residual = 4.90210518022e-06, No Iterations 0
time step continuity errors : sum local = 8.25650117436e-10, global = -2.82184070515e-11, cumulative = 5.33888892261e-06
DILUPBiCGStab:  Solving for p, Initial residual = 4.90757062037e-06, Final residual = 4.90757062037e-06, No Iterations 0
time step continuity errors : sum local = 8.2656540247e-10, global = -2.8220762629e-11, cumulative = 5.33886070185e-06
DILUPBiCGStab:  Solving for p, Initial residual = 4.90785884823e-06, Final residual = 4.90785884823e-06, No Iterations 0
time step continuity errors : sum local = 8.26613694449e-10, global = -2.82207609556e-11, cumulative = 5.33883248109e-06
DILUPBiCGStab:  Solving for p, Initial residual = 4.90789987415e-06, Final residual = 4.90789987415e-06, No Iterations 0
time step continuity errors : sum local = 8.26620568443e-10, global = -2.82207609561e-11, cumulative = 5.33880426033e-06
DILUPBiCGStab:  Solving for p, Initial residual = 4.90792166694e-06, Final residual = 4.90792166694e-06, No Iterations 0
time step continuity errors : sum local = 8.26624219898e-10, global = -2.82207609561e-11, cumulative = 5.33877603957e-06
DILUPBiCGStab:  Solving for p, Initial residual = 4.90792736859e-06, Final residual = 4.90792736859e-06, No Iterations 0
time step continuity errors : sum local = 8.2662517523e-10, global = -2.82207609561e-11, cumulative = 5.33874781881e-06
DILUPBiCGStab:  Solving for p, Initial residual = 4.90792789725e-06, Final residual = 4.90792789725e-06, No Iterations 0
time step continuity errors : sum local = 8.26625263811e-10, global = -2.82207609561e-11, cumulative = 5.33871959804e-06
DILUPBiCGStab:  Solving for p, Initial residual = 4.90792830489e-06, Final residual = 4.90792830489e-06, No Iterations 0
time step continuity errors : sum local = 8.26625332112e-10, global = -2.82207609561e-11, cumulative = 5.33869137728e-06
DILUPBiCGStab:  Solving for p, Initial residual = 4.90792856728e-06, Final residual = 4.90792856728e-06, No Iterations 0
time step continuity errors : sum local = 8.26625376076e-10, global = -2.82207609561e-11, cumulative = 5.33866315652e-06
DILUPBiCGStab:  Solving for p, Initial residual = 4.90792857643e-06, Final residual = 9.93066589016e-08, No Iterations 21
time step continuity errors : sum local = 1.56594946585e-11, global = -7.41085509028e-12, cumulative = 5.33865574567e-06
PIMPLE: iteration 7
DILUPBiCGStab:  Solving for p, Initial residual = 1.33640926678e-06, Final residual = 1.33640926678e-06, No Iterations 0
time step continuity errors : sum local = 2.24421931776e-10, global = -1.38117433329e-11, cumulative = 5.33864193392e-06
DILUPBiCGStab:  Solving for p, Initial residual = 1.33815886364e-06, Final residual = 1.33815886364e-06, No Iterations 0
time step continuity errors : sum local = 2.24715013061e-10, global = -1.3812141276e-11, cumulative = 5.33862812178e-06
DILUPBiCGStab:  Solving for p, Initial residual = 1.33826684131e-06, Final residual = 1.33826684131e-06, No Iterations 0
time step continuity errors : sum local = 2.24733105763e-10, global = -1.38121408698e-11, cumulative = 5.33861430964e-06
DILUPBiCGStab:  Solving for p, Initial residual = 1.33827482572e-06, Final residual = 1.33827482572e-06, No Iterations 0
time step continuity errors : sum local = 2.2473444366e-10, global = -1.38121408698e-11, cumulative = 5.3386004975e-06
DILUPBiCGStab:  Solving for p, Initial residual = 1.33828013162e-06, Final residual = 1.33828013162e-06, No Iterations 0
time step continuity errors : sum local = 2.24735332738e-10, global = -1.38121408698e-11, cumulative = 5.33858668536e-06
DILUPBiCGStab:  Solving for p, Initial residual = 1.33828244219e-06, Final residual = 1.33828244219e-06, No Iterations 0
time step continuity errors : sum local = 2.24735719907e-10, global = -1.38121408698e-11, cumulative = 5.33857287322e-06
DILUPBiCGStab:  Solving for p, Initial residual = 1.33828309794e-06, Final residual = 1.33828309794e-06, No Iterations 0
time step continuity errors : sum local = 2.24735829788e-10, global = -1.38121408698e-11, cumulative = 5.33855906108e-06
DILUPBiCGStab:  Solving for p, Initial residual = 1.33828329062e-06, Final residual = 1.33828329062e-06, No Iterations 0
time step continuity errors : sum local = 2.24735862074e-10, global = -1.38121408698e-11, cumulative = 5.33854524894e-06
DILUPBiCGStab:  Solving for p, Initial residual = 1.33828331254e-06, Final residual = 1.33828331254e-06, No Iterations 0
time step continuity errors : sum local = 2.24735865746e-10, global = -1.38121408698e-11, cumulative = 5.3385314368e-06
DILUPBiCGStab:  Solving for p, Initial residual = 1.33828329708e-06, Final residual = 7.45796199015e-08, No Iterations 48
time step continuity errors : sum local = 1.23299365538e-11, global = -6.42552837048e-12, cumulative = 5.33852501127e-06
PIMPLE: iteration 8
DILUPBiCGStab:  Solving for p, Initial residual = 4.01204606337e-07, Final residual = 4.01204606337e-07, No Iterations 0
time step continuity errors : sum local = 6.74436351865e-11, global = -8.51298100905e-12, cumulative = 5.33851649829e-06
DILUPBiCGStab:  Solving for p, Initial residual = 4.0182636808e-07, Final residual = 4.0182636808e-07, No Iterations 0
time step continuity errors : sum local = 6.75478012897e-11, global = -8.5131043658e-12, cumulative = 5.33850798518e-06
DILUPBiCGStab:  Solving for p, Initial residual = 4.01874963433e-07, Final residual = 4.01874963433e-07, No Iterations 0
time step continuity errors : sum local = 6.75559440652e-11, global = -8.51310425644e-12, cumulative = 5.33849947208e-06
DILUPBiCGStab:  Solving for p, Initial residual = 4.01881469545e-07, Final residual = 4.01881469545e-07, No Iterations 0
time step continuity errors : sum local = 6.75570342673e-11, global = -8.51310425648e-12, cumulative = 5.33849095897e-06
DILUPBiCGStab:  Solving for p, Initial residual = 4.0188450464e-07, Final residual = 4.0188450464e-07, No Iterations 0
time step continuity errors : sum local = 6.75575428457e-11, global = -8.51310425648e-12, cumulative = 5.33848244587e-06
DILUPBiCGStab:  Solving for p, Initial residual = 4.01885626251e-07, Final residual = 4.01885626251e-07, No Iterations 0
time step continuity errors : sum local = 6.75577307896e-11, global = -8.51310425648e-12, cumulative = 5.33847393277e-06
DILUPBiCGStab:  Solving for p, Initial residual = 4.01885955922e-07, Final residual = 4.01885955922e-07, No Iterations 0
time step continuity errors : sum local = 6.75577860312e-11, global = -8.51310425648e-12, cumulative = 5.33846541966e-06
DILUPBiCGStab:  Solving for p, Initial residual = 4.01886054019e-07, Final residual = 4.01886054019e-07, No Iterations 0
time step continuity errors : sum local = 6.7557802469e-11, global = -8.51310425648e-12, cumulative = 5.33845690656e-06
DILUPBiCGStab:  Solving for p, Initial residual = 4.01886073782e-07, Final residual = 4.01886073782e-07, No Iterations 0
time step continuity errors : sum local = 6.75578057807e-11, global = -8.51310425648e-12, cumulative = 5.33844839345e-06
DILUPBiCGStab:  Solving for p, Initial residual = 4.01886068385e-07, Final residual = 9.49438590474e-08, No Iterations 2
time step continuity errors : sum local = 1.52487755936e-11, global = -6.87032074833e-12, cumulative = 5.33844152313e-06
PIMPLE: iteration 9
DILUPBiCGStab:  Solving for p, Initial residual = 1.75888646726e-07, Final residual = 1.75888646726e-07, No Iterations 0
time step continuity errors : sum local = 2.89045477485e-11, global = -7.45731027843e-12, cumulative = 5.33843406582e-06
DILUPBiCGStab:  Solving for p, Initial residual = 1.76135032509e-07, Final residual = 1.76135032509e-07, No Iterations 0
time step continuity errors : sum local = 2.89458264874e-11, global = -7.4573500504e-12, cumulative = 5.33842660847e-06
DILUPBiCGStab:  Solving for p, Initial residual = 1.76151175139e-07, Final residual = 1.76151175139e-07, No Iterations 0
time step continuity errors : sum local = 2.89485314053e-11, global = -7.45735002144e-12, cumulative = 5.33841915112e-06
DILUPBiCGStab:  Solving for p, Initial residual = 1.7615459795e-07, Final residual = 1.7615459795e-07, No Iterations 0
time step continuity errors : sum local = 2.89491049532e-11, global = -7.4573500215e-12, cumulative = 5.33841169377e-06
DILUPBiCGStab:  Solving for p, Initial residual = 1.76156778851e-07, Final residual = 1.76156778851e-07, No Iterations 0
time step continuity errors : sum local = 2.89494703989e-11, global = -7.4573500215e-12, cumulative = 5.33840423642e-06
DILUPBiCGStab:  Solving for p, Initial residual = 1.76157682246e-07, Final residual = 1.76157682246e-07, No Iterations 0
time step continuity errors : sum local = 2.89496217775e-11, global = -7.4573500215e-12, cumulative = 5.33839677907e-06
DILUPBiCGStab:  Solving for p, Initial residual = 1.76157919035e-07, Final residual = 1.76157919035e-07, No Iterations 0
time step continuity errors : sum local = 2.89496614554e-11, global = -7.4573500215e-12, cumulative = 5.33838932172e-06
DILUPBiCGStab:  Solving for p, Initial residual = 1.76157934061e-07, Final residual = 1.76157934061e-07, No Iterations 0
time step continuity errors : sum local = 2.89496639733e-11, global = -7.4573500215e-12, cumulative = 5.33838186437e-06
DILUPBiCGStab:  Solving for p, Initial residual = 1.76157927321e-07, Final residual = 1.76157927321e-07, No Iterations 0
time step continuity errors : sum local = 2.89496628439e-11, global = -7.4573500215e-12, cumulative = 5.33837440702e-06
DILUPBiCGStab:  Solving for p, Initial residual = 1.76157928304e-07, Final residual = 9.77606228069e-08, No Iterations 1
time step continuity errors : sum local = 1.57626108424e-11, global = -7.1153369624e-12, cumulative = 5.33836729168e-06
PIMPLE: iteration 10
DILUPBiCGStab:  Solving for p, Initial residual = 1.17968194219e-07, Final residual = 1.17968194219e-07, No Iterations 0
time step continuity errors : sum local = 1.91694636793e-11, global = -7.28999580237e-12, cumulative = 5.33836000169e-06
DILUPBiCGStab:  Solving for p, Initial residual = 1.18056101607e-07, Final residual = 1.18056101607e-07, No Iterations 0
time step continuity errors : sum local = 1.91841911667e-11, global = -7.29000894909e-12, cumulative = 5.33835271168e-06
DILUPBiCGStab:  Solving for p, Initial residual = 1.18053484617e-07, Final residual = 1.18053484617e-07, No Iterations 0
time step continuity errors : sum local = 1.91837526377e-11, global = -7.29000894165e-12, cumulative = 5.33834542167e-06
DILUPBiCGStab:  Solving for p, Initial residual = 1.18053937426e-07, Final residual = 1.18053937426e-07, No Iterations 0
time step continuity errors : sum local = 1.91838285132e-11, global = -7.29000894164e-12, cumulative = 5.33833813166e-06
DILUPBiCGStab:  Solving for p, Initial residual = 1.18055083528e-07, Final residual = 1.18055083528e-07, No Iterations 0
time step continuity errors : sum local = 1.91840205614e-11, global = -7.29000894164e-12, cumulative = 5.33833084165e-06
DILUPBiCGStab:  Solving for p, Initial residual = 1.18055571441e-07, Final residual = 1.18055571441e-07, No Iterations 0
time step continuity errors : sum local = 1.91841023191e-11, global = -7.29000894164e-12, cumulative = 5.33832355164e-06
DILUPBiCGStab:  Solving for p, Initial residual = 1.180556398e-07, Final residual = 1.180556398e-07, No Iterations 0
time step continuity errors : sum local = 1.91841137738e-11, global = -7.29000894164e-12, cumulative = 5.33831626164e-06
DILUPBiCGStab:  Solving for p, Initial residual = 1.18055640561e-07, Final residual = 1.18055640561e-07, No Iterations 0
time step continuity errors : sum local = 1.91841139014e-11, global = -7.29000894164e-12, cumulative = 5.33830897163e-06
DILUPBiCGStab:  Solving for p, Initial residual = 1.18055637651e-07, Final residual = 1.18055637651e-07, No Iterations 0
time step continuity errors : sum local = 1.91841134137e-11, global = -7.29000894164e-12, cumulative = 5.33830168162e-06
DILUPBiCGStab:  Solving for p, Initial residual = 1.18055635118e-07, Final residual = 9.39886556748e-08, No Iterations 1
time step continuity errors : sum local = 1.52909052019e-11, global = -7.23949659949e-12, cumulative = 5.33829444212e-06
ExecutionTime = 21.1 s  ClockTime = 21 s

forces forces1 write:
    Sum of forces
        Total    : (-0.0112513023645 0.00836662362364 -0.0802584519061)
        Pressure : (-0.0112387964218 0.00835559961793 -0.0803316938977)
        Viscous  : (-1.25059426396e-05 1.10240057078e-05 7.32419916067e-05)
    Sum of moments
        Total    : (0.000125647479885 -0.000630088527789 -9.37863054544e-05)
        Pressure : (0.000125767317297 -0.000630353564691 -9.364960828e-05)
        Viscous  : (-1.1983741246e-07 2.65036901917e-07 -1.36697174398e-07)
    writing force and moment files.

Courant Number mean: 0.000538958503075 max: 10.2251925504
Time = 3e-05

forces forces:
    rho: rhoInf
    Freestream density (rhoInf) set to 1.225
    Not including porosity effects

6-DoF rigid body motion
    Centre of rotation: (0 0 0)
    Centre of mass: (0 0 0)
    Orientation: (0.999999999998 -1.93507697252e-06 0 1.93507697252e-06 0.999999999998 0 0 0 1)
    Linear velocity: (0 0 0)
    Angular velocity: (0 0 0.206480545591)
inverseDistance : detected 2 mesh regions
    zone:0 nCells:253304  voxels:(30 30 30) bb:(-0.500001061727 -0.500001061727 -0.800001061727) (1.0617268952e-06 1.06172689521e-06 -0.0079989382731)
    zone:1 nCells:637287  voxels:(30 30 30) bb:(-0.100000145202 -0.100000352771 -0.100000160567) (-0.00399578395072 -0.00799987714324 -0.00999467943309)

 Number of layers : 2
 Average volumetric ratio : 2(0.124768037121 0.129768552215)
 Number of holes cells : 2(20306 20313)
 Using layer : 2

Overset analysis : nCells : 890591
    calculated   : 870214
    interpolated : 20345 (from local:10040  mixed local/remote:9545  remote:760)
    hole         : 32

PIMPLE: iteration 1
DILUPBiCGStab:  Solving for p, Initial residual = 0.00570393244416, Final residual = 0.00404259424825, No Iterations 10
time step continuity errors : sum local = 6.69007781135e-07, global = -5.65365610648e-07, cumulative = 4.77292883147e-06
DILUPBiCGStab:  Solving for p, Initial residual = 0.00409056172494, Final residual = 0.00740622353582, No Iterations 10
time step continuity errors : sum local = 1.10128289159e-06, global = -8.23959400875e-07, cumulative = 3.9489694306e-06
DILUPBiCGStab:  Solving for p, Initial residual = 0.00753887380088, Final residual = 0.00574065088612, No Iterations 10
time step continuity errors : sum local = 8.86253823593e-07, global = -6.36718151264e-07, cumulative = 3.31225127933e-06
DILUPBiCGStab:  Solving for p, Initial residual = 0.00592956329143, Final residual = 0.0062327629877, No Iterations 10
time step continuity errors : sum local = 9.52630710226e-07, global = -7.26053551694e-07, cumulative = 2.58619772764e-06
DILUPBiCGStab:  Solving for p, Initial residual = 0.00654476269893, Final residual = 0.00611275036634, No Iterations 10
time step continuity errors : sum local = 9.14571192669e-07, global = -6.54599204356e-07, cumulative = 1.93159852328e-06
DILUPBiCGStab:  Solving for p, Initial residual = 0.00642872959996, Final residual = 0.00619089519921, No Iterations 10
time step continuity errors : sum local = 9.05127910113e-07, global = -6.91346505203e-07, cumulative = 1.24025201808e-06
DILUPBiCGStab:  Solving for p, Initial residual = 0.00655492329576, Final residual = 0.00585302257831, No Iterations 10
time step continuity errors : sum local = 8.30568491333e-07, global = -6.39545118675e-07, cumulative = 6.00706899407e-07
DILUPBiCGStab:  Solving for p, Initial residual = 0.00617374021438, Final residual = 0.00693637888142, No Iterations 10
time step continuity errors : sum local = 9.52953146013e-07, global = -6.6179372765e-07, cumulative = -6.10868282433e-08
DILUPBiCGStab:  Solving for p, Initial residual = 0.00736020455026, Final residual = 0.00608073612369, No Iterations 10
time step continuity errors : sum local = 8.10257762018e-07, global = -6.08359652191e-07, cumulative = -6.69446480434e-07
DILUPBiCGStab:  Solving for p, Initial residual = 0.00638854486883, Final residual = 5.13871079743e-05, No Iterations 67
time step continuity errors : sum local = 6.91726929242e-09, global = -9.51986140227e-10, cumulative = -6.70398466574e-07
PIMPLE: iteration 2
DILUPBiCGStab:  Solving for p, Initial residual = 0.110797731622, Final residual = 0.00757995525295, No Iterations 10
time step continuity errors : sum local = 1.39083705604e-08, global = -1.13724251455e-08, cumulative = -6.8177089172e-07
DILUPBiCGStab:  Solving for p, Initial residual = 0.0151551372254, Final residual = 0.00746575807994, No Iterations 10
time step continuity errors : sum local = 1.30075024629e-08, global = -4.84493477619e-09, cumulative = -6.86615826496e-07
DILUPBiCGStab:  Solving for p, Initial residual = 0.00858591075629, Final residual = 0.0055588700624, No Iterations 10
time step continuity errors : sum local = 9.13524772666e-09, global = -7.79105187416e-09, cumulative = -6.9440687837e-07
DILUPBiCGStab:  Solving for p, Initial residual = 0.00604910733569, Final residual = 0.00855673242462, No Iterations 10
time step continuity errors : sum local = 1.40280026773e-08, global = -3.60866830051e-09, cumulative = -6.98015546671e-07
DILUPBiCGStab:  Solving for p, Initial residual = 0.00846976562969, Final residual = 0.00433022764083, No Iterations 10
time step continuity errors : sum local = 7.4499134969e-09, global = -6.55342191961e-09, cumulative = -7.0456896859e-07
DILUPBiCGStab:  Solving for p, Initial residual = 0.00482699845481, Final residual = 0.00870459356715, No Iterations 10
time step continuity errors : sum local = 1.45099760447e-08, global = -3.41249977831e-09, cumulative = -7.07981468368e-07
DILUPBiCGStab:  Solving for p, Initial residual = 0.00836796981038, Final residual = 0.00357612385836, No Iterations 10
time step continuity errors : sum local = 6.49321480712e-09, global = -5.86738376079e-09, cumulative = -7.13848852129e-07
DILUPBiCGStab:  Solving for p, Initial residual = 0.0041239444149, Final residual = 0.00846311895375, No Iterations 10
time step continuity errors : sum local = 1.48374404316e-08, global = -2.88376388212e-09, cumulative = -7.16732616011e-07
DILUPBiCGStab:  Solving for p, Initial residual = 0.00808777027134, Final residual = 0.00288873225365, No Iterations 10
time step continuity errors : sum local = 5.57192785972e-09, global = -5.00416229438e-09, cumulative = -7.21736778306e-07
DILUPBiCGStab:  Solving for p, Initial residual = 0.00345677512342, Final residual = 2.62221326889e-05, No Iterations 72
time step continuity errors : sum local = 4.98801442349e-11, global = 8.0342262149e-13, cumulative = -7.21735974883e-07
PIMPLE: iteration 3
DILUPBiCGStab:  Solving for p, Initial residual = 0.0111591367699, Final residual = 0.000813079096045, No Iterations 10
time step continuity errors : sum local = 2.29383219191e-09, global = 1.55533164921e-09, cumulative = -7.20180643234e-07
DILUPBiCGStab:  Solving for p, Initial residual = 0.0010500806006, Final residual = 0.000647859272292, No Iterations 10
time step continuity errors : sum local = 1.86087579339e-09, global = 8.06114708907e-10, cumulative = -7.19374528525e-07
DILUPBiCGStab:  Solving for p, Initial residual = 0.000683108395776, Final residual = 0.00058489283385, No Iterations 10
time step continuity errors : sum local = 1.65652050207e-09, global = 1.11322422961e-09, cumulative = -7.18261304295e-07
DILUPBiCGStab:  Solving for p, Initial residual = 0.000615544463201, Final residual = 0.000481899273374, No Iterations 10
time step continuity errors : sum local = 1.38012205845e-09, global = 7.27545475506e-10, cumulative = -7.1753375882e-07
DILUPBiCGStab:  Solving for p, Initial residual = 0.00051327145259, Final residual = 0.000447112533807, No Iterations 10
time step continuity errors : sum local = 1.26825648416e-09, global = 9.36959742644e-10, cumulative = -7.16596799077e-07
DILUPBiCGStab:  Solving for p, Initial residual = 0.000474695951491, Final residual = 0.000444937188626, No Iterations 10
time step continuity errors : sum local = 1.26742596092e-09, global = 6.71887097506e-10, cumulative = -7.1592491198e-07
DILUPBiCGStab:  Solving for p, Initial residual = 0.000471099396988, Final residual = 0.000375155865585, No Iterations 10
time step continuity errors : sum local = 1.05764869297e-09, global = 8.2146624827e-10, cumulative = -7.15103445731e-07
DILUPBiCGStab:  Solving for p, Initial residual = 0.000400329270196, Final residual = 0.000400243728261, No Iterations 10
time step continuity errors : sum local = 1.15078683737e-09, global = 6.22678135506e-10, cumulative = -7.14480767596e-07
DILUPBiCGStab:  Solving for p, Initial residual = 0.000422333551008, Final residual = 0.000340746418295, No Iterations 10
time step continuity errors : sum local = 9.51559903802e-10, global = 7.46343455527e-10, cumulative = -7.1373442414e-07
DILUPBiCGStab:  Solving for p, Initial residual = 0.000364090096121, Final residual = 2.42400544347e-06, No Iterations 68
time step continuity errors : sum local = 7.06610784305e-12, global = 1.65507030516e-12, cumulative = -7.1373276907e-07
PIMPLE: iteration 4
DILUPBiCGStab:  Solving for p, Initial residual = 0.00250847089396, Final residual = 4.2318951765e-05, No Iterations 10
time step continuity errors : sum local = 1.07967411563e-10, global = 9.20499147368e-11, cumulative = -7.13640719155e-07
DILUPBiCGStab:  Solving for p, Initial residual = 8.60830551812e-05, Final residual = 4.21428134648e-05, No Iterations 10
time step continuity errors : sum local = 1.13497903483e-10, global = 2.1607055786e-11, cumulative = -7.136191121e-07
DILUPBiCGStab:  Solving for p, Initial residual = 4.84960534729e-05, Final residual = 2.38824287575e-05, No Iterations 10
time step continuity errors : sum local = 6.00353994417e-11, global = 5.21581342155e-11, cumulative = -7.13566953965e-07
DILUPBiCGStab:  Solving for p, Initial residual = 2.60843667214e-05, Final residual = 4.27030148616e-05, No Iterations 10
time step continuity errors : sum local = 1.13529233166e-10, global = 1.38316042473e-11, cumulative = -7.13553122361e-07
DILUPBiCGStab:  Solving for p, Initial residual = 4.43500884584e-05, Final residual = 1.96815686449e-05, No Iterations 10
time step continuity errors : sum local = 5.15821688047e-11, global = 4.54245115981e-11, cumulative = -7.1350769785e-07
DILUPBiCGStab:  Solving for p, Initial residual = 2.17878111487e-05, Final residual = 4.24042505299e-05, No Iterations 10
time step continuity errors : sum local = 1.12550167513e-10, global = 2.0859696377e-11, cumulative = -7.13486838153e-07
DILUPBiCGStab:  Solving for p, Initial residual = 4.41165817052e-05, Final residual = 1.86411960179e-05, No Iterations 10
time step continuity errors : sum local = 4.88826636974e-11, global = 4.49130669173e-11, cumulative = -7.13441925086e-07
DILUPBiCGStab:  Solving for p, Initial residual = 2.13912278586e-05, Final residual = 4.32878371587e-05, No Iterations 10
time step continuity errors : sum local = 1.14688171938e-10, global = 1.16206459839e-11, cumulative = -7.1343030444e-07
DILUPBiCGStab:  Solving for p, Initial residual = 4.48141079618e-05, Final residual = 1.56280494678e-05, No Iterations 10
time step continuity errors : sum local = 4.18522279424e-11, global = 3.67731821506e-11, cumulative = -7.13393531258e-07
DILUPBiCGStab:  Solving for p, Initial residual = 1.86665075351e-05, Final residual = 1.86592124529e-07, No Iterations 72
time step continuity errors : sum local = 5.02845609609e-13, global = 7.37376529085e-14, cumulative = -7.1339345752e-07
PIMPLE: iteration 5
DILUPBiCGStab:  Solving for p, Initial residual = 0.000593053948641, Final residual = 9.31413626816e-06, No Iterations 3
time step continuity errors : sum local = 1.59876633737e-11, global = 6.18262497522e-12, cumulative = -7.13387274896e-07
DILUPBiCGStab:  Solving for p, Initial residual = 1.72012125501e-05, Final residual = 9.09343625598e-06, No Iterations 1
time step continuity errors : sum local = 1.58213468412e-11, global = 7.34946477759e-12, cumulative = -7.13379925431e-07
DILUPBiCGStab:  Solving for p, Initial residual = 1.00106674119e-05, Final residual = 9.57532773349e-06, No Iterations 1
time step continuity errors : sum local = 1.76130461034e-11, global = 7.99107654438e-12, cumulative = -7.13371934354e-07
DILUPBiCGStab:  Solving for p, Initial residual = 9.23415562518e-06, Final residual = 9.23415562518e-06, No Iterations 0
time step continuity errors : sum local = 1.66553874352e-11, global = 8.00860290417e-12, cumulative = -7.13363925751e-07
DILUPBiCGStab:  Solving for p, Initial residual = 9.23712676819e-06, Final residual = 9.23712676819e-06, No Iterations 0
time step continuity errors : sum local = 1.66636025446e-11, global = 8.00860421957e-12, cumulative = -7.13355917147e-07
DILUPBiCGStab:  Solving for p, Initial residual = 9.23758686581e-06, Final residual = 9.23758686581e-06, No Iterations 0
time step continuity errors : sum local = 1.66648748093e-11, global = 8.00860422091e-12, cumulative = -7.13347908543e-07
DILUPBiCGStab:  Solving for p, Initial residual = 9.23752640186e-06, Final residual = 9.23752640186e-06, No Iterations 0
time step continuity errors : sum local = 1.66647076122e-11, global = 8.00860422091e-12, cumulative = -7.13339899939e-07
DILUPBiCGStab:  Solving for p, Initial residual = 9.23751640769e-06, Final residual = 9.23751640769e-06, No Iterations 0
time step continuity errors : sum local = 1.66646799758e-11, global = 8.00860422091e-12, cumulative = -7.13331891334e-07
DILUPBiCGStab:  Solving for p, Initial residual = 9.23753179697e-06, Final residual = 9.23753179697e-06, No Iterations 0
time step continuity errors : sum local = 1.66647225304e-11, global = 8.00860422091e-12, cumulative = -7.1332388273e-07
DILUPBiCGStab:  Solving for p, Initial residual = 9.23753788932e-06, Final residual = 9.57822760669e-08, No Iterations 114
time step continuity errors : sum local = 2.62444283476e-13, global = 1.10014049837e-13, cumulative = -7.13323772716e-07
PIMPLE: iteration 6
DILUPBiCGStab:  Solving for p, Initial residual = 0.000145416293515, Final residual = 9.28328992533e-06, No Iterations 1
time step continuity errors : sum local = 2.31567823474e-11, global = 1.49008777531e-12, cumulative = -7.13322282628e-07
DILUPBiCGStab:  Solving for p, Initial residual = 1.07605524247e-05, Final residual = 5.06538008409e-06, No Iterations 1
time step continuity errors : sum local = 1.1491511532e-11, global = 1.24020613192e-12, cumulative = -7.13321042422e-07
DILUPBiCGStab:  Solving for p, Initial residual = 4.90884829998e-06, Final residual = 4.90884829998e-06, No Iterations 0
time step continuity errors : sum local = 1.10559406767e-11, global = 1.25642783991e-12, cumulative = -7.13319785994e-07
DILUPBiCGStab:  Solving for p, Initial residual = 4.91665169009e-06, Final residual = 4.91665169009e-06, No Iterations 0
time step continuity errors : sum local = 1.10775058273e-11, global = 1.25642856306e-12, cumulative = -7.13318529566e-07
DILUPBiCGStab:  Solving for p, Initial residual = 4.91825793577e-06, Final residual = 4.91825793577e-06, No Iterations 0
time step continuity errors : sum local = 1.10819448161e-11, global = 1.25642856384e-12, cumulative = -7.13317273137e-07
DILUPBiCGStab:  Solving for p, Initial residual = 4.91846923894e-06, Final residual = 4.91846923894e-06, No Iterations 0
time step continuity errors : sum local = 1.10825287692e-11, global = 1.25642856384e-12, cumulative = -7.13316016709e-07
DILUPBiCGStab:  Solving for p, Initial residual = 4.91851594816e-06, Final residual = 4.91851594816e-06, No Iterations 0
time step continuity errors : sum local = 1.10826578537e-11, global = 1.25642856384e-12, cumulative = -7.1331476028e-07
DILUPBiCGStab:  Solving for p, Initial residual = 4.91854124029e-06, Final residual = 4.91854124029e-06, No Iterations 0
time step continuity errors : sum local = 1.10827277506e-11, global = 1.25642856384e-12, cumulative = -7.13313503852e-07
DILUPBiCGStab:  Solving for p, Initial residual = 4.91855089798e-06, Final residual = 4.91855089798e-06, No Iterations 0
time step continuity errors : sum local = 1.10827544404e-11, global = 1.25642856384e-12, cumulative = -7.13312247423e-07
DILUPBiCGStab:  Solving for p, Initial residual = 4.91855216283e-06, Final residual = 6.66902978791e-08, No Iterations 98
time step continuity errors : sum local = 1.78773332499e-13, global = 1.40699590523e-13, cumulative = -7.13312106723e-07
PIMPLE: iteration 7
DILUPBiCGStab:  Solving for p, Initial residual = 3.76538781177e-05, Final residual = 7.41297861963e-06, No Iterations 1
time step continuity errors : sum local = 1.87403901486e-11, global = 5.31249202111e-13, cumulative = -7.13311575474e-07
DILUPBiCGStab:  Solving for p, Initial residual = 7.43087041849e-06, Final residual = 7.43087041849e-06, No Iterations 0
time step continuity errors : sum local = 1.87906139874e-11, global = 5.56796583019e-13, cumulative = -7.13311018678e-07
DILUPBiCGStab:  Solving for p, Initial residual = 7.44418728505e-06, Final residual = 7.44418728505e-06, No Iterations 0
time step continuity errors : sum local = 1.88274127605e-11, global = 5.56796735667e-13, cumulative = -7.13310461881e-07
DILUPBiCGStab:  Solving for p, Initial residual = 7.4462217349e-06, Final residual = 7.4462217349e-06, No Iterations 0
time step continuity errors : sum local = 1.88330345546e-11, global = 5.56796734606e-13, cumulative = -7.13309905084e-07
DILUPBiCGStab:  Solving for p, Initial residual = 7.44652685259e-06, Final residual = 7.44652685259e-06, No Iterations 0
time step continuity errors : sum local = 1.88338776855e-11, global = 5.56796734606e-13, cumulative = -7.13309348287e-07
DILUPBiCGStab:  Solving for p, Initial residual = 7.44662632806e-06, Final residual = 7.44662632806e-06, No Iterations 0
time step continuity errors : sum local = 1.88341525655e-11, global = 5.56796734606e-13, cumulative = -7.13308791491e-07
DILUPBiCGStab:  Solving for p, Initial residual = 7.4466619183e-06, Final residual = 7.4466619183e-06, No Iterations 0
time step continuity errors : sum local = 1.88342509118e-11, global = 5.56796734606e-13, cumulative = -7.13308234694e-07
DILUPBiCGStab:  Solving for p, Initial residual = 7.4466702182e-06, Final residual = 7.4466702182e-06, No Iterations 0
time step continuity errors : sum local = 1.88342738468e-11, global = 5.56796734606e-13, cumulative = -7.13307677897e-07
DILUPBiCGStab:  Solving for p, Initial residual = 7.44667099104e-06, Final residual = 7.44667099104e-06, No Iterations 0
time step continuity errors : sum local = 1.88342759824e-11, global = 5.56796734606e-13, cumulative = -7.133071211e-07
DILUPBiCGStab:  Solving for p, Initial residual = 7.4466708689e-06, Final residual = 7.1061877741e-08, No Iterations 78
time step continuity errors : sum local = 1.86816439606e-13, global = 1.71078368364e-13, cumulative = -7.13306950022e-07
PIMPLE: iteration 8
DILUPBiCGStab:  Solving for p, Initial residual = 9.90094889864e-06, Final residual = 9.90094889864e-06, No Iterations 0
time step continuity errors : sum local = 2.74773177197e-11, global = 5.60231136328e-13, cumulative = -7.13306389791e-07
DILUPBiCGStab:  Solving for p, Initial residual = 9.91500111299e-06, Final residual = 9.91500111299e-06, No Iterations 0
time step continuity errors : sum local = 2.75161418155e-11, global = 5.60255697676e-13, cumulative = -7.13305829535e-07
DILUPBiCGStab:  Solving for p, Initial residual = 9.91655953725e-06, Final residual = 9.91655953725e-06, No Iterations 0
time step continuity errors : sum local = 2.75204481191e-11, global = 5.60255658906e-13, cumulative = -7.1330526928e-07
DILUPBiCGStab:  Solving for p, Initial residual = 9.91673867897e-06, Final residual = 9.91673867897e-06, No Iterations 0
time step continuity errors : sum local = 2.75209431372e-11, global = 5.60255658838e-13, cumulative = -7.13304709024e-07
DILUPBiCGStab:  Solving for p, Initial residual = 9.91678883205e-06, Final residual = 9.91678883205e-06, No Iterations 0
time step continuity errors : sum local = 2.75210817228e-11, global = 5.60255658838e-13, cumulative = -7.13304148768e-07
DILUPBiCGStab:  Solving for p, Initial residual = 9.91680731264e-06, Final residual = 9.91680731264e-06, No Iterations 0
time step continuity errors : sum local = 2.75211327891e-11, global = 5.60255658838e-13, cumulative = -7.13303588513e-07
DILUPBiCGStab:  Solving for p, Initial residual = 9.91681218425e-06, Final residual = 9.91681218425e-06, No Iterations 0
time step continuity errors : sum local = 2.75211462506e-11, global = 5.60255658838e-13, cumulative = -7.13303028257e-07
DILUPBiCGStab:  Solving for p, Initial residual = 9.91681258809e-06, Final residual = 9.91681258809e-06, No Iterations 0
time step continuity errors : sum local = 2.75211473666e-11, global = 5.60255658838e-13, cumulative = -7.13302468001e-07
DILUPBiCGStab:  Solving for p, Initial residual = 9.91681267704e-06, Final residual = 9.91681267704e-06, No Iterations 0
time step continuity errors : sum local = 2.75211476124e-11, global = 5.60255658838e-13, cumulative = -7.13301907746e-07
DILUPBiCGStab:  Solving for p, Initial residual = 9.91681291054e-06, Final residual = 9.48652270338e-08, No Iterations 20
time step continuity errors : sum local = 2.38860722611e-13, global = 2.3284947395e-13, cumulative = -7.13301674896e-07
PIMPLE: iteration 9
DILUPBiCGStab:  Solving for p, Initial residual = 2.73816782082e-06, Final residual = 2.73816782082e-06, No Iterations 0
time step continuity errors : sum local = 7.58115797543e-12, global = 3.54508805486e-13, cumulative = -7.13301320387e-07
DILUPBiCGStab:  Solving for p, Initial residual = 2.74309745355e-06, Final residual = 2.74309745355e-06, No Iterations 0
time step continuity errors : sum local = 7.59477900124e-12, global = 3.54517169663e-13, cumulative = -7.1330096587e-07
DILUPBiCGStab:  Solving for p, Initial residual = 2.74326250381e-06, Final residual = 2.74326250381e-06, No Iterations 0
time step continuity errors : sum local = 7.5952350627e-12, global = 3.54517158459e-13, cumulative = -7.13300611353e-07
DILUPBiCGStab:  Solving for p, Initial residual = 2.74318893656e-06, Final residual = 2.74318893656e-06, No Iterations 0
time step continuity errors : sum local = 7.5950317786e-12, global = 3.54517158475e-13, cumulative = -7.13300256836e-07
DILUPBiCGStab:  Solving for p, Initial residual = 2.74320080307e-06, Final residual = 2.74320080307e-06, No Iterations 0
time step continuity errors : sum local = 7.59506456868e-12, global = 3.54517158475e-13, cumulative = -7.13299902319e-07
DILUPBiCGStab:  Solving for p, Initial residual = 2.74321578255e-06, Final residual = 2.74321578255e-06, No Iterations 0
time step continuity errors : sum local = 7.59510596065e-12, global = 3.54517158475e-13, cumulative = -7.13299547802e-07
DILUPBiCGStab:  Solving for p, Initial residual = 2.74321937274e-06, Final residual = 2.74321937274e-06, No Iterations 0
time step continuity errors : sum local = 7.59511588122e-12, global = 3.54517158475e-13, cumulative = -7.13299193284e-07
DILUPBiCGStab:  Solving for p, Initial residual = 2.74321901119e-06, Final residual = 2.74321901119e-06, No Iterations 0
time step continuity errors : sum local = 7.59511488216e-12, global = 3.54517158475e-13, cumulative = -7.13298838767e-07
DILUPBiCGStab:  Solving for p, Initial residual = 2.74321852869e-06, Final residual = 2.74321852869e-06, No Iterations 0
time step continuity errors : sum local = 7.5951135489e-12, global = 3.54517158475e-13, cumulative = -7.1329848425e-07
DILUPBiCGStab:  Solving for p, Initial residual = 2.74321844097e-06, Final residual = 8.88561829839e-08, No Iterations 20
time step continuity errors : sum local = 2.3540200311e-13, global = 2.00674058593e-13, cumulative = -7.13298283576e-07
PIMPLE: iteration 10
DILUPBiCGStab:  Solving for p, Initial residual = 7.95107812964e-07, Final residual = 7.95107812964e-07, No Iterations 0
time step continuity errors : sum local = 2.19792285912e-12, global = 2.37652377737e-13, cumulative = -7.13298045924e-07
DILUPBiCGStab:  Solving for p, Initial residual = 7.97045303214e-07, Final residual = 7.97045303214e-07, No Iterations 0
time step continuity errors : sum local = 2.20327638575e-12, global = 2.37655237108e-13, cumulative = -7.13297808268e-07
DILUPBiCGStab:  Solving for p, Initial residual = 7.96919261676e-07, Final residual = 7.96919261676e-07, No Iterations 0
time step continuity errors : sum local = 2.20292809854e-12, global = 2.37655234032e-13, cumulative = -7.13297570613e-07
DILUPBiCGStab:  Solving for p, Initial residual = 7.9685493721e-07, Final residual = 7.9685493721e-07, No Iterations 0
time step continuity errors : sum local = 2.20275035475e-12, global = 2.37655234042e-13, cumulative = -7.13297332958e-07
DILUPBiCGStab:  Solving for p, Initial residual = 7.96863631526e-07, Final residual = 7.96863631526e-07, No Iterations 0
time step continuity errors : sum local = 2.20277437922e-12, global = 2.37655234042e-13, cumulative = -7.13297095303e-07
DILUPBiCGStab:  Solving for p, Initial residual = 7.96872205005e-07, Final residual = 7.96872205005e-07, No Iterations 0
time step continuity errors : sum local = 2.20279806978e-12, global = 2.37655234042e-13, cumulative = -7.13296857647e-07
[...]
time step continuity errors : sum local = 1.67270049401e-12, global = -1.03522266154e-13, cumulative = -6.71615803134e-07
DILUPBiCGStab:  Solving for p, Initial residual = 4.96943556552e-06, Final residual = 4.96943556552e-06, No Iterations 0
time step continuity errors : sum local = 1.67273215569e-12, global = -1.03522266154e-13, cumulative = -6.71615906657e-07
DILUPBiCGStab:  Solving for p, Initial residual = 4.96945671386e-06, Final residual = 4.96945671386e-06, No Iterations 0
time step continuity errors : sum local = 1.6727397636e-12, global = -1.03522266154e-13, cumulative = -6.71616010179e-07
DILUPBiCGStab:  Solving for p, Initial residual = 4.96946165655e-06, Final residual = 4.96946165655e-06, No Iterations 0
time step continuity errors : sum local = 1.67274154169e-12, global = -1.03522266154e-13, cumulative = -6.71616113701e-07
DILUPBiCGStab:  Solving for p, Initial residual = 4.96946277946e-06, Final residual = 4.96946277946e-06, No Iterations 0
time step continuity errors : sum local = 1.67274194564e-12, global = -1.03522266154e-13, cumulative = -6.71616217223e-07
DILUPBiCGStab:  Solving for p, Initial residual = 4.96946303233e-06, Final residual = 9.85542942577e-08, No Iterations 18
time step continuity errors : sum local = 3.50270505371e-14, global = 1.00336707629e-14, cumulative = -6.7161620719e-07
PIMPLE: iteration 5
DILUPBiCGStab:  Solving for p, Initial residual = 6.86986970992e-05, Final residual = 5.73441488313e-06, No Iterations 1
time step continuity errors : sum local = 1.93109210457e-12, global = -2.83257610623e-14, cumulative = -6.71616235516e-07
DILUPBiCGStab:  Solving for p, Initial residual = 5.72660749081e-06, Final residual = 5.72660749081e-06, No Iterations 0
time step continuity errors : sum local = 1.92810098488e-12, global = -2.75838495575e-14, cumulative = -6.71616263099e-07
DILUPBiCGStab:  Solving for p, Initial residual = 5.72950404142e-06, Final residual = 5.72950404142e-06, No Iterations 0
time step continuity errors : sum local = 1.9291428946e-12, global = -2.75838461186e-14, cumulative = -6.71616290683e-07
DILUPBiCGStab:  Solving for p, Initial residual = 5.73008606317e-06, Final residual = 5.73008606317e-06, No Iterations 0
time step continuity errors : sum local = 1.929352252e-12, global = -2.75838460471e-14, cumulative = -6.71616318267e-07
DILUPBiCGStab:  Solving for p, Initial residual = 5.73021237614e-06, Final residual = 5.73021237614e-06, No Iterations 0
time step continuity errors : sum local = 1.92939768769e-12, global = -2.75838460467e-14, cumulative = -6.71616345851e-07
DILUPBiCGStab:  Solving for p, Initial residual = 5.73024213905e-06, Final residual = 5.73024213905e-06, No Iterations 0
time step continuity errors : sum local = 1.92940839362e-12, global = -2.75838460467e-14, cumulative = -6.71616373435e-07
DILUPBiCGStab:  Solving for p, Initial residual = 5.73024927994e-06, Final residual = 5.73024927994e-06, No Iterations 0
time step continuity errors : sum local = 1.92941096225e-12, global = -2.75838460467e-14, cumulative = -6.71616401019e-07
DILUPBiCGStab:  Solving for p, Initial residual = 5.73025094542e-06, Final residual = 5.73025094542e-06, No Iterations 0
time step continuity errors : sum local = 1.92941156134e-12, global = -2.75838460467e-14, cumulative = -6.71616428603e-07
DILUPBiCGStab:  Solving for p, Initial residual = 5.73025132288e-06, Final residual = 5.73025132288e-06, No Iterations 0
time step continuity errors : sum local = 1.92941169711e-12, global = -2.75838460467e-14, cumulative = -6.71616456186e-07
DILUPBiCGStab:  Solving for p, Initial residual = 5.73025140756e-06, Final residual = 9.50561640076e-08, No Iterations 5
time step continuity errors : sum local = 3.29539669763e-14, global = -3.54133591952e-15, cumulative = -6.71616459728e-07
PIMPLE: iteration 6
DILUPBiCGStab:  Solving for p, Initial residual = 2.02367387118e-05, Final residual = 1.72242577589e-06, No Iterations 1
time step continuity errors : sum local = 5.81012119658e-13, global = -1.72109753058e-14, cumulative = -6.71616476939e-07
DILUPBiCGStab:  Solving for p, Initial residual = 1.72238517261e-06, Final residual = 1.72238517261e-06, No Iterations 0
time step continuity errors : sum local = 5.80960425432e-13, global = -1.69978167789e-14, cumulative = -6.71616493936e-07
DILUPBiCGStab:  Solving for p, Initial residual = 1.72346345071e-06, Final residual = 1.72346345071e-06, No Iterations 0
time step continuity errors : sum local = 5.81348281938e-13, global = -1.69978161267e-14, cumulative = -6.71616510934e-07
DILUPBiCGStab:  Solving for p, Initial residual = 1.72368735549e-06, Final residual = 1.72368735549e-06, No Iterations 0
time step continuity errors : sum local = 5.81428820238e-13, global = -1.69978161916e-14, cumulative = -6.71616527932e-07
DILUPBiCGStab:  Solving for p, Initial residual = 1.72373787155e-06, Final residual = 1.72373787155e-06, No Iterations 0
time step continuity errors : sum local = 5.81446990807e-13, global = -1.69978161919e-14, cumulative = -6.7161654493e-07
DILUPBiCGStab:  Solving for p, Initial residual = 1.72375021133e-06, Final residual = 1.72375021133e-06, No Iterations 0
time step continuity errors : sum local = 5.81451429414e-13, global = -1.69978161919e-14, cumulative = -6.71616561928e-07
DILUPBiCGStab:  Solving for p, Initial residual = 1.72375323745e-06, Final residual = 1.72375323745e-06, No Iterations 0
time step continuity errors : sum local = 5.81452517906e-13, global = -1.69978161919e-14, cumulative = -6.71616578926e-07
DILUPBiCGStab:  Solving for p, Initial residual = 1.72375395162e-06, Final residual = 1.72375395162e-06, No Iterations 0
time step continuity errors : sum local = 5.81452774792e-13, global = -1.69978161919e-14, cumulative = -6.71616595923e-07
DILUPBiCGStab:  Solving for p, Initial residual = 1.72375411518e-06, Final residual = 1.72375411518e-06, No Iterations 0
time step continuity errors : sum local = 5.81452833625e-13, global = -1.69978161919e-14, cumulative = -6.71616612921e-07
DILUPBiCGStab:  Solving for p, Initial residual = 1.72375415235e-06, Final residual = 9.80996719851e-08, No Iterations 3
time step continuity errors : sum local = 3.31606028579e-14, global = -9.88786741276e-15, cumulative = -6.71616622809e-07
PIMPLE: iteration 7
DILUPBiCGStab:  Solving for p, Initial residual = 5.98746697025e-06, Final residual = 5.98746697025e-06, No Iterations 0
time step continuity errors : sum local = 2.15429194704e-12, global = -2.05065502723e-14, cumulative = -6.71616643316e-07
DILUPBiCGStab:  Solving for p, Initial residual = 5.98870048377e-06, Final residual = 5.98870048377e-06, No Iterations 0
time step continuity errors : sum local = 2.15473617392e-12, global = -2.0506325959e-14, cumulative = -6.71616663822e-07
DILUPBiCGStab:  Solving for p, Initial residual = 5.98900728719e-06, Final residual = 5.98900728719e-06, No Iterations 0
time step continuity errors : sum local = 2.15484653129e-12, global = -2.05063260206e-14, cumulative = -6.71616684328e-07
DILUPBiCGStab:  Solving for p, Initial residual = 5.98906816605e-06, Final residual = 5.98906816605e-06, No Iterations 0
time step continuity errors : sum local = 2.15486842928e-12, global = -2.05063260634e-14, cumulative = -6.71616704835e-07
DILUPBiCGStab:  Solving for p, Initial residual = 5.98908186026e-06, Final residual = 5.98908186026e-06, No Iterations 0
time step continuity errors : sum local = 2.15487335506e-12, global = -2.05063260634e-14, cumulative = -6.71616725341e-07
DILUPBiCGStab:  Solving for p, Initial residual = 5.98908514851e-06, Final residual = 5.98908514851e-06, No Iterations 0
time step continuity errors : sum local = 2.15487453784e-12, global = -2.05063260633e-14, cumulative = -6.71616745847e-07
DILUPBiCGStab:  Solving for p, Initial residual = 5.98908592779e-06, Final residual = 5.98908592779e-06, No Iterations 0
time step continuity errors : sum local = 2.15487481814e-12, global = -2.05063260634e-14, cumulative = -6.71616766354e-07
DILUPBiCGStab:  Solving for p, Initial residual = 5.98908610728e-06, Final residual = 5.98908610728e-06, No Iterations 0
time step continuity errors : sum local = 2.15487488271e-12, global = -2.05063260634e-14, cumulative = -6.7161678686e-07
DILUPBiCGStab:  Solving for p, Initial residual = 5.98908614816e-06, Final residual = 5.98908614816e-06, No Iterations 0
time step continuity errors : sum local = 2.15487489741e-12, global = -2.05063260634e-14, cumulative = -6.71616807366e-07
DILUPBiCGStab:  Solving for p, Initial residual = 5.98908615745e-06, Final residual = 9.91541142651e-08, No Iterations 2
time step continuity errors : sum local = 3.33858942341e-14, global = -1.20111939831e-14, cumulative = -6.71616819377e-07
PIMPLE: iteration 8
DILUPBiCGStab:  Solving for p, Initial residual = 1.80275772423e-06, Final residual = 1.80275772423e-06, No Iterations 0
time step continuity errors : sum local = 6.46920560124e-13, global = -1.51449892707e-14, cumulative = -6.71616834522e-07
DILUPBiCGStab:  Solving for p, Initial residual = 1.80312336327e-06, Final residual = 1.80312336327e-06, No Iterations 0
time step continuity errors : sum local = 6.47052200315e-13, global = -1.51449280908e-14, cumulative = -6.71616849667e-07
DILUPBiCGStab:  Solving for p, Initial residual = 1.80321585365e-06, Final residual = 1.80321585365e-06, No Iterations 0
time step continuity errors : sum local = 6.47085468955e-13, global = -1.5144928045e-14, cumulative = -6.71616864812e-07
DILUPBiCGStab:  Solving for p, Initial residual = 1.80323472174e-06, Final residual = 1.80323472174e-06, No Iterations 0
time step continuity errors : sum local = 6.47092255732e-13, global = -1.5144928087e-14, cumulative = -6.71616879957e-07
DILUPBiCGStab:  Solving for p, Initial residual = 1.80323914268e-06, Final residual = 1.80323914268e-06, No Iterations 0
time step continuity errors : sum local = 6.47093845926e-13, global = -1.5144928087e-14, cumulative = -6.71616895102e-07
DILUPBiCGStab:  Solving for p, Initial residual = 1.80324023067e-06, Final residual = 1.80324023067e-06, No Iterations 0
time step continuity errors : sum local = 6.47094237272e-13, global = -1.5144928087e-14, cumulative = -6.71616910247e-07
DILUPBiCGStab:  Solving for p, Initial residual = 1.80324049009e-06, Final residual = 1.80324049009e-06, No Iterations 0
time step continuity errors : sum local = 6.47094330586e-13, global = -1.5144928087e-14, cumulative = -6.71616925392e-07
DILUPBiCGStab:  Solving for p, Initial residual = 1.80324055029e-06, Final residual = 1.80324055029e-06, No Iterations 0
time step continuity errors : sum local = 6.47094352239e-13, global = -1.5144928087e-14, cumulative = -6.71616940537e-07
DILUPBiCGStab:  Solving for p, Initial residual = 1.80324056419e-06, Final residual = 1.80324056419e-06, No Iterations 0
time step continuity errors : sum local = 6.47094357239e-13, global = -1.5144928087e-14, cumulative = -6.71616955682e-07
DILUPBiCGStab:  Solving for p, Initial residual = 1.8032405674e-06, Final residual = 9.60295610577e-08, No Iterations 2
time step continuity errors : sum local = 3.21259782606e-14, global = -1.20714259157e-14, cumulative = -6.71616967753e-07
PIMPLE: iteration 9
DILUPBiCGStab:  Solving for p, Initial residual = 5.68995373992e-07, Final residual = 5.68995373992e-07, No Iterations 0
time step continuity errors : sum local = 2.02413743471e-13, global = -1.30102862679e-14, cumulative = -6.71616980764e-07
DILUPBiCGStab:  Solving for p, Initial residual = 5.69074475753e-07, Final residual = 5.69074475753e-07, No Iterations 0
time step continuity errors : sum local = 2.02442221149e-13, global = -1.30102706632e-14, cumulative = -6.71616993774e-07
DILUPBiCGStab:  Solving for p, Initial residual = 5.69096302026e-07, Final residual = 5.69096302026e-07, No Iterations 0
time step continuity errors : sum local = 2.02450072022e-13, global = -1.30102706044e-14, cumulative = -6.71617006784e-07
DILUPBiCGStab:  Solving for p, Initial residual = 5.69100678778e-07, Final residual = 5.69100678778e-07, No Iterations 0
time step continuity errors : sum local = 2.02451646323e-13, global = -1.30102706059e-14, cumulative = -6.71617019794e-07
DILUPBiCGStab:  Solving for p, Initial residual = 5.6910169149e-07, Final residual = 5.6910169149e-07, No Iterations 0
time step continuity errors : sum local = 2.0245201059e-13, global = -1.30102706059e-14, cumulative = -6.71617032805e-07
DILUPBiCGStab:  Solving for p, Initial residual = 5.69101942275e-07, Final residual = 5.69101942275e-07, No Iterations 0
time step continuity errors : sum local = 2.02452100797e-13, global = -1.30102706059e-14, cumulative = -6.71617045815e-07
DILUPBiCGStab:  Solving for p, Initial residual = 5.69102002538e-07, Final residual = 5.69102002538e-07, No Iterations 0
time step continuity errors : sum local = 2.02452122473e-13, global = -1.30102706059e-14, cumulative = -6.71617058825e-07
DILUPBiCGStab:  Solving for p, Initial residual = 5.69102016448e-07, Final residual = 5.69102016448e-07, No Iterations 0
time step continuity errors : sum local = 2.02452127476e-13, global = -1.30102706059e-14, cumulative = -6.71617071835e-07
DILUPBiCGStab:  Solving for p, Initial residual = 5.69102019628e-07, Final residual = 5.69102019628e-07, No Iterations 0
time step continuity errors : sum local = 2.0245212862e-13, global = -1.30102706059e-14, cumulative = -6.71617084846e-07
DILUPBiCGStab:  Solving for p, Initial residual = 5.6910202036e-07, Final residual = 9.22966528008e-08, No Iterations 1
time step continuity errors : sum local = 3.09782434106e-14, global = -1.18091963283e-14, cumulative = -6.71617096655e-07
PIMPLE: iteration 10
DILUPBiCGStab:  Solving for p, Initial residual = 2.21494511205e-07, Final residual = 2.21494511205e-07, No Iterations 0
time step continuity errors : sum local = 7.75003768612e-14, global = -1.20935615338e-14, cumulative = -6.71617108748e-07
DILUPBiCGStab:  Solving for p, Initial residual = 2.21506572997e-07, Final residual = 2.21506572997e-07, No Iterations 0
time step continuity errors : sum local = 7.75047201188e-14, global = -1.20935579191e-14, cumulative = -6.71617120842e-07
DILUPBiCGStab:  Solving for p, Initial residual = 2.21510857915e-07, Final residual = 2.21510857915e-07, No Iterations 0
time step continuity errors : sum local = 7.75062613896e-14, global = -1.20935578715e-14, cumulative = -6.71617132936e-07
DILUPBiCGStab:  Solving for p, Initial residual = 2.21511735713e-07, Final residual = 2.21511735713e-07, No Iterations 0
time step continuity errors : sum local = 7.7506577129e-14, global = -1.20935578709e-14, cumulative = -6.71617145029e-07
DILUPBiCGStab:  Solving for p, Initial residual = 2.21511935571e-07, Final residual = 2.21511935571e-07, No Iterations 0
time step continuity errors : sum local = 7.75066490169e-14, global = -1.20935578709e-14, cumulative = -6.71617157123e-07
DILUPBiCGStab:  Solving for p, Initial residual = 2.21511983969e-07, Final residual = 2.21511983969e-07, No Iterations 0
time step continuity errors : sum local = 7.75066664255e-14, global = -1.20935578709e-14, cumulative = -6.71617169216e-07
DILUPBiCGStab:  Solving for p, Initial residual = 2.21511995459e-07, Final residual = 2.21511995459e-07, No Iterations 0
time step continuity errors : sum local = 7.75066705582e-14, global = -1.20935578709e-14, cumulative = -6.7161718131e-07
DILUPBiCGStab:  Solving for p, Initial residual = 2.21511998088e-07, Final residual = 2.21511998088e-07, No Iterations 0
time step continuity errors : sum local = 7.75066715039e-14, global = -1.20935578709e-14, cumulative = -6.71617193403e-07
DILUPBiCGStab:  Solving for p, Initial residual = 2.21511998681e-07, Final residual = 2.21511998681e-07, No Iterations 0
time step continuity errors : sum local = 7.75066717173e-14, global = -1.20935578709e-14, cumulative = -6.71617205497e-07
DILUPBiCGStab:  Solving for p, Initial residual = 2.21511998816e-07, Final residual = 9.426932519e-08, No Iterations 1
time step continuity errors : sum local = 3.18170532624e-14, global = -1.16006450471e-14, cumulative = -6.71617217098e-07
ExecutionTime = 376.64 s  ClockTime = 381 s

forces forces1 write:
    Sum of forces
        Total    : (6.1236587939e-05 -6.46233370013e-05 0.00035813098171)
        Pressure : (7.09199616671e-05 -7.03344364586e-05 0.000340029655499)
        Viscous  : (-9.68337372809e-06 5.71109945726e-06 1.81013262114e-05)
    Sum of moments
        Total    : (-5.53733223445e-07 3.29970564734e-06 7.34075511066e-07)
        Pressure : (-5.29120033199e-07 3.24347985395e-06 8.05330791916e-07)
        Viscous  : (-2.46131902456e-08 5.62257933913e-08 -7.12552808502e-08)
    writing force and moment files.

Courant Number mean: 0.000538549204482 max: 3.12322788771
Time = 0.00039

forces forces:
    rho: rhoInf
    Freestream density (rhoInf) set to 1.225
    Not including porosity effects

6-DoF rigid body motion
    Centre of rotation: (0 0 0)
    Centre of mass: (0 0 0)
    Orientation: (0.999999984759 -0.000174593068422 0 0.000174593068422 0.999999984759 0 0 0 1)
    Linear velocity: (0 0 0)
    Angular velocity: (0 0 0.579030100914)
inverseDistance : detected 2 mesh regions
    zone:0 nCells:253304  voxels:(30 30 30) bb:(-0.500001061727 -0.500001061727 -0.800001061727) (1.0617268952e-06 1.06172689521e-06 -0.0079989382731)
    zone:1 nCells:637287  voxels:(30 30 30) bb:(-0.0999987728208 -0.100017500707 -0.100000160584) (-0.00398243140191 -0.00800056494491 -0.00999467941649)

 Number of layers : 2
 Average volumetric ratio : 2(0.124768037164 0.129768552231)
 Number of holes cells : 2(20306 20313)
 Using layer : 2

Overset analysis : nCells : 890591
    calculated   : 870214
    interpolated : 20345 (from local:10041  mixed local/remote:9544  remote:760)
    hole         : 32

PIMPLE: iteration 1
DILUPBiCGStab:  Solving for p, Initial residual = 0.00880676941246, Final residual = 5.79120526556e-05, No Iterations 2
time step continuity errors : sum local = 1.83327274913e-11, global = -3.14058793333e-12, cumulative = -6.71620357686e-07
DILUPBiCGStab:  Solving for p, Initial residual = 6.56457537057e-05, Final residual = 9.0407381256e-06, No Iterations 3
time step continuity errors : sum local = 2.86069556593e-12, global = -2.15457816256e-12, cumulative = -6.71622512264e-07
DILUPBiCGStab:  Solving for p, Initial residual = 1.03916169426e-05, Final residual = 8.80798365894e-06, No Iterations 1
time step continuity errors : sum local = 2.72451089528e-12, global = -2.055171752e-12, cumulative = -6.71624567435e-07
DILUPBiCGStab:  Solving for p, Initial residual = 8.93067107874e-06, Final residual = 8.93067107874e-06, No Iterations 0
time step continuity errors : sum local = 2.76875508413e-12, global = -2.05405077855e-12, cumulative = -6.71626621486e-07
DILUPBiCGStab:  Solving for p, Initial residual = 8.93721353235e-06, Final residual = 8.93721353235e-06, No Iterations 0
time step continuity errors : sum local = 2.77108563578e-12, global = -2.0540507813e-12, cumulative = -6.71628675537e-07
DILUPBiCGStab:  Solving for p, Initial residual = 8.93887819181e-06, Final residual = 8.93887819181e-06, No Iterations 0
time step continuity errors : sum local = 2.77167861805e-12, global = -2.05405078131e-12, cumulative = -6.71630729588e-07
DILUPBiCGStab:  Solving for p, Initial residual = 8.93928281757e-06, Final residual = 8.93928281757e-06, No Iterations 0
time step continuity errors : sum local = 2.77182275321e-12, global = -2.05405078131e-12, cumulative = -6.71632783639e-07
DILUPBiCGStab:  Solving for p, Initial residual = 8.93938067753e-06, Final residual = 8.93938067753e-06, No Iterations 0
time step continuity errors : sum local = 2.77185761274e-12, global = -2.05405078131e-12, cumulative = -6.71634837689e-07
DILUPBiCGStab:  Solving for p, Initial residual = 8.93940380523e-06, Final residual = 8.93940380523e-06, No Iterations 0
time step continuity errors : sum local = 2.77186585126e-12, global = -2.05405078131e-12, cumulative = -6.7163689174e-07
