/*---------------------------------------------------------------------------*\
| =========                 |                                                 |
| \\      /  F ield         | OpenFOAM: The Open Source CFD Toolbox           |
|  \\    /   O peration     | Version:  2406                                  |
|   \\  /    A nd           | Website:  www.openfoam.com                      |
|    \\/     M anipulation  |                                                 |
\*---------------------------------------------------------------------------*/
Build  : _be01ca78-20240625 OPENFOAM=2406 version=2406
Arch   : "LSB;label=32;scalar=64"
Exec   : overPimpleDyMFoam -parallel
Date   : Nov 09 2024
Time   : 16:21:32
Host   : dell-Inspiron-16-Plus-7630
PID    : 186027
I/O    : uncollated
Case   : /home/dell/Desktop/fsi_rigid/background_zone
nProcs : 12
Hosts  :
(
    (dell-Inspiron-16-Plus-7630 12)
)
Pstream initialized with:
    floatTransfer      : false
    maxCommsSize       : 0
    nProcsSimpleSum    : 0
    nonBlockingExchange: 0 (tuning: 0)
    exchange algorithm : 0
    commsType          : nonBlocking
    polling iterations : 0
trapFpe: Floating point exception trapping enabled (FOAM_SIGFPE).
fileModificationChecking : Monitoring run-time modified files using timeStampMaster (fileModificationSkew 5, maxFileModificationPolls 20)
allowSystemOperations : Allowing user-supplied system call operations

// * * * * * * * * * * * * * * * * * * * * * * * * * * * * * * * * * * * * * //
Create time

Create mesh for time = 0

Selecting dynamicFvMesh dynamicOversetFvMesh
Selecting motion solver: sixDoFRigidBodyMotion
Applying motion to entire mesh
Selecting sixDoFSolver CrankNicolson
Translational constraint tensor (0 0 0 0 0 0 0 0 0)
Rotational constraint tensor (0 0 0 0 0 0 0 0 1)

PIMPLE: no residual control data found. Calculations will employ 5 corrector loops

Reading field p

Reading field U

Reading/calculating face flux field phi

Creating cellMask field to block out hole cells

--> FOAM Warning : 
    From bool Foam::oversetPolyPatch::master() const
    in file oversetPolyPatch/oversetPolyPatch.C at line 145
    The master overset patch is not the first patch. Generally the first patch should be an overset patch to guarantee consistent operation.
Creating interpolatedCells field 

Selecting incompressible transport model Newtonian
Selecting turbulence model type RAS
Selecting RAS turbulence model kOmegaSST
Selecting patchDistMethod meshWave
RAS
{
    RASModel        kOmegaSST;
    turbulence      on;
    printCoeffs     on;
    alphaK1         0.85;
    alphaK2         1;
    alphaOmega1     0.5;
    alphaOmega2     0.856;
    gamma1          0.555555555556;
    gamma2          0.44;
    beta1           0.075;
    beta2           0.0828;
    betaStar        0.09;
    a1              0.31;
    b1              1;
    c1              10;
    F3              false;
    decayControl    false;
    kInf            0;
    omegaInf        0;
}

Reading/calculating face velocity Uf

No MRF models present

No finite volume options present
Courant Number mean: 0.00144391081045 max: 2.38311962751

Starting time loop

forces forces1:
    rho: rhoInf
    Freestream density (rhoInf) set to 1.225
    Not including porosity effects

timeActivatedFileUpdate fileUpdate1 output:
    time vs file list:
    -1	"<system>/maxCo0.01"
    0.01	"<system>/maxCo0.02"
    0.04	"<system>/maxCo0.03"
    0.06	"<system>/maxCo0.04"
    0.07	"<system>/maxCo0.05"
    0.09	"<system>/maxCo0.06"
    0.1	"<system>/maxCo0.07"
    0.2	"<system>/maxCo0.08"
    0.3	"<system>/maxCo0.09"
    0.4	"<system>/maxCo0.10"

timeActivatedFileUpdate: copying file
from: "<system>/maxCo0.01"
to  : "<system>/maxCo"


    From virtual bool Foam::regIOobject::readIfModified()
    in file db/regIOobject/regIOobjectRead.C at line 272
        Re-reading object controlDict from file "/home/dell/Desktop/fsi_rigid/background_zone/system/controlDict" because of modified file "/home/dell/Desktop/fsi_rigid/background_zone/system/maxCo"
Courant Number mean: 0.00144391081045 max: 2.38311962751
Time = 5e-05

forces forces:
    rho: rhoInf
    Freestream density (rhoInf) set to 1.225
    Not including porosity effects

6-DoF rigid body motion
    Centre of rotation: (0 0 0)
    Centre of mass: (0 0 0)
    Orientation: (1 -3.18470059026e-08 0 3.18470059026e-08 1 0 0 0 1)
    Linear velocity: (0 0 0)
    Angular velocity: (0 0 0.0012738802361)
inverseDistance : detected 2 mesh regions
    zone:0 nCells:54000  voxels:(30 30 30) bb:(-0.500001086566 -0.500001086566 -0.800001086566) (1.08656569061e-06 1.08656569061e-06 0.0250010865657)
    zone:1 nCells:303211  voxels:(30 30 30) bb:(-0.500001086566 -0.500001097633 -0.800001086566) (1.91479011665e-06 1.07123200248e-06 0.0250010865661)

 Number of layers : 2
 Average volumetric ratio : 2(1.03178184111 1.02528319386)
 Number of holes cells : 2(3646 3235)
 Using layer : 2

Overset analysis : nCells : 357211
    calculated   : 333635
    interpolated : 6712 (from local:5860  mixed local/remote:852  remote:0)
    hole         : 16864

PIMPLE: iteration 1
smoothSolver:  Solving for Ux, Initial residual = 1, Final residual = 5.71544802252e-07, No Iterations 15
smoothSolver:  Solving for Uy, Initial residual = 1, Final residual = 5.00110853099e-07, No Iterations 15
smoothSolver:  Solving for Uz, Initial residual = 0.999999165305, Final residual = 9.95100835882e-07, No Iterations 10
DILUPBiCGStab:  Solving for p, Initial residual = 1, Final residual = 7.66715098648e-07, No Iterations 205
time step continuity errors : sum local = 2.03193414178e-15, global = -1.9398015447e-15, cumulative = -1.9398015447e-15
DILUPBiCGStab:  Solving for p, Initial residual = 3.41415761927e-06, Final residual = 9.94061219642e-07, No Iterations 2
time step continuity errors : sum local = 2.74238213544e-09, global = -7.1282096396e-13, cumulative = -7.14760765505e-13
DILUPBiCGStab:  Solving for p, Initial residual = 1.92314699652e-06, Final residual = 9.73293061927e-07, No Iterations 7
time step continuity errors : sum local = 2.64097407447e-09, global = 8.21853582605e-11, cumulative = 8.1470597495e-11
DILUPBiCGStab:  Solving for p, Initial residual = 1.76672470293e-06, Final residual = 9.56726335725e-07, No Iterations 3
time step continuity errors : sum local = 2.39737098389e-09, global = 1.39618973191e-10, cumulative = 2.21089570686e-10
DILUPBiCGStab:  Solving for p, Initial residual = 1.31023795948e-06, Final residual = 9.63467825839e-07, No Iterations 2
time step continuity errors : sum local = 2.30141715765e-09, global = 1.21118336231e-10, cumulative = 3.42207906918e-10
smoothSolver:  Solving for omega, Initial residual = 3.37763436127e-06, Final residual = 7.61614354784e-07, No Iterations 1
bounding omega, min: -71541.7441517 max: 10130518.1756 average: 128418.925198
smoothSolver:  Solving for k, Initial residual = 0.999999992399, Final residual = 5.72508152458e-07, No Iterations 7
PIMPLE: iteration 2
smoothSolver:  Solving for Ux, Initial residual = 0.000185997557184, Final residual = 6.96359962704e-07, No Iterations 2
smoothSolver:  Solving for Uy, Initial residual = 0.000196596165057, Final residual = 7.25423678475e-07, No Iterations 2
smoothSolver:  Solving for Uz, Initial residual = 4.26506466464e-05, Final residual = 1.67543211571e-07, No Iterations 2
DILUPBiCGStab:  Solving for p, Initial residual = 0.00217531368957, Final residual = 8.62614923644e-07, No Iterations 81
time step continuity errors : sum local = 1.80496776849e-09, global = -1.68960325797e-09, cumulative = -1.34739535105e-09
DILUPBiCGStab:  Solving for p, Initial residual = 0.0032725007965, Final residual = 9.8246934396e-07, No Iterations 86
time step continuity errors : sum local = 4.71356368761e-10, global = -4.0200707044e-10, cumulative = -1.74940242149e-09
DILUPBiCGStab:  Solving for p, Initial residual = 0.00312509293982, Final residual = 9.55837818644e-07, No Iterations 83
time step continuity errors : sum local = 9.67184458186e-11, global = 2.36539472106e-11, cumulative = -1.72574847428e-09
DILUPBiCGStab:  Solving for p, Initial residual = 0.00462775977326, Final residual = 8.65867278476e-07, No Iterations 112
time step continuity errors : sum local = 1.17138294486e-11, global = 1.16806821951e-11, cumulative = -1.71406779208e-09
DILUPBiCGStab:  Solving for p, Initial residual = 0.00441825311371, Final residual = 8.58669807768e-07, No Iterations 113
time step continuity errors : sum local = 2.89039814753e-12, global = 9.01569441679e-13, cumulative = -1.71316622264e-09
smoothSolver:  Solving for omega, Initial residual = 0.995921533877, Final residual = 6.71421045619e-07, No Iterations 5
bounding omega, min: -9.81631451662e+16 max: 4.87451076803e+18 average: 7.82494559363e+13
smoothSolver:  Solving for k, Initial residual = 0.998337790964, Final residual = 2.55414099095e-11, No Iterations 1
PIMPLE: iteration 3
smoothSolver:  Solving for Ux, Initial residual = 6.06305790738e-06, Final residual = 8.56030433371e-08, No Iterations 1
smoothSolver:  Solving for Uy, Initial residual = 9.84804240386e-06, Final residual = 1.57830253258e-07, No Iterations 1
smoothSolver:  Solving for Uz, Initial residual = 2.0684961182e-06, Final residual = 3.7965303116e-08, No Iterations 1
DILUPBiCGStab:  Solving for p, Initial residual = 0.0091525026709, Final residual = 9.28517107223e-07, No Iterations 85
time step continuity errors : sum local = 7.73105575353e-13, global = -1.87455039888e-13, cumulative = -1.71335367768e-09
DILUPBiCGStab:  Solving for p, Initial residual = 0.000407815061485, Final residual = 8.81486603627e-07, No Iterations 29
time step continuity errors : sum local = 5.23547619871e-12, global = 9.49844987494e-13, cumulative = -1.71240383269e-09
DILUPBiCGStab:  Solving for p, Initial residual = 7.17257824209e-05, Final residual = 9.22372148978e-07, No Iterations 15
time step continuity errors : sum local = 5.45010827281e-12, global = 5.81906897424e-13, cumulative = -1.7118219258e-09
DILUPBiCGStab:  Solving for p, Initial residual = 1.59052413086e-05, Final residual = 9.85950810405e-07, No Iterations 6
time step continuity errors : sum local = 5.84787271989e-12, global = 6.70419089377e-13, cumulative = -1.71115150671e-09
DILUPBiCGStab:  Solving for p, Initial residual = 4.69637883975e-06, Final residual = 9.76941692007e-07, No Iterations 3
time step continuity errors : sum local = 5.79023387847e-12, global = 6.97825512711e-13, cumulative = -1.71045368119e-09
smoothSolver:  Solving for omega, Initial residual = 0.542127335953, Final residual = 5.06504594042e-07, No Iterations 3
bounding omega, min: -3.29635240087e+28 max: 8.5251455726e+30 average: 1.13698917717e+26
smoothSolver:  Solving for k, Initial residual = 0.805376903036, Final residual = 2.96627803553e-18, No Iterations 1
PIMPLE: iteration 4
smoothSolver:  Solving for Ux, Initial residual = 2.49627451142e-06, Final residual = 4.0822479527e-08, No Iterations 1
smoothSolver:  Solving for Uy, Initial residual = 4.27415964432e-06, Final residual = 7.70140771801e-08, No Iterations 1
smoothSolver:  Solving for Uz, Initial residual = 9.52316260526e-07, Final residual = 9.52316260526e-07, No Iterations 0
DILUPBiCGStab:  Solving for p, Initial residual = 0.000220158452194, Final residual = 6.59545711703e-07, No Iterations 21
time step continuity errors : sum local = 3.84454933764e-12, global = -2.4101096237e-13, cumulative = -1.71069469216e-09
DILUPBiCGStab:  Solving for p, Initial residual = 7.29004712404e-05, Final residual = 7.37698006446e-07, No Iterations 13
time step continuity errors : sum local = 4.34340964493e-12, global = -3.45329125991e-13, cumulative = -1.71104002128e-09
DILUPBiCGStab:  Solving for p, Initial residual = 1.74026231253e-05, Final residual = 9.63309898988e-07, No Iterations 5
time step continuity errors : sum local = 5.72613449935e-12, global = -5.06975520371e-13, cumulative = -1.7115469968e-09
DILUPBiCGStab:  Solving for p, Initial residual = 5.28741604903e-06, Final residual = 9.48825964849e-07, No Iterations 3
time step continuity errors : sum local = 5.63579368267e-12, global = -4.82346488744e-13, cumulative = -1.71202934329e-09
DILUPBiCGStab:  Solving for p, Initial residual = 2.05283081476e-06, Final residual = 9.6517184744e-07, No Iterations 1
time step continuity errors : sum local = 5.7354495836e-12, global = -4.70058248361e-13, cumulative = -1.71249940154e-09
smoothSolver:  Solving for omega, Initial residual = 0.538479765498, Final residual = 2.99245467226e-14, No Iterations 1
bounding omega, min: -2.04090662911e+37 max: 6.68710800936e+45 average: 2.39175064482e+40
smoothSolver:  Solving for k, Initial residual = 0.445201683753, Final residual = 1.90535097886e-25, No Iterations 1
PIMPLE: iteration 5
smoothSolver:  Solving for Ux, Initial residual = 1.13266143787e-06, Final residual = 2.0951860251e-08, No Iterations 1
smoothSolver:  Solving for Uy, Initial residual = 2.04032677861e-06, Final residual = 3.94721229526e-08, No Iterations 1
smoothSolver:  Solving for Uz, Initial residual = 3.29431276599e-07, Final residual = 3.29431276599e-07, No Iterations 0
DILUPBiCGStab:  Solving for p, Initial residual = 7.3620178259e-05, Final residual = 8.98176180434e-07, No Iterations 10
time step continuity errors : sum local = 5.37019898445e-12, global = -1.05138455215e-12, cumulative = -1.71355078609e-09
DILUPBiCGStab:  Solving for p, Initial residual = 2.92419779664e-05, Final residual = 8.96390555107e-07, No Iterations 12
time step continuity errors : sum local = 5.21898254133e-12, global = -1.35769954791e-12, cumulative = -1.71490848564e-09
DILUPBiCGStab:  Solving for p, Initial residual = 7.46134683722e-06, Final residual = 9.86981793359e-07, No Iterations 3
time step continuity errors : sum local = 5.76739000977e-12, global = -1.42048128534e-12, cumulative = -1.71632896693e-09
DILUPBiCGStab:  Solving for p, Initial residual = 2.44887421841e-06, Final residual = 9.56781213624e-07, No Iterations 2
time step continuity errors : sum local = 5.58967920254e-12, global = -1.44342511381e-12, cumulative = -1.71777239204e-09
DILUPBiCGStab:  Solving for p, Initial residual = 1.27194775485e-06, Final residual = 8.98071448623e-07, No Iterations 1
time step continuity errors : sum local = 5.23322859047e-12, global = -1.44239076097e-12, cumulative = -1.7192147828e-09
smoothSolver:  Solving for omega, Initial residual = 0.538465062168, Final residual = 3.05745413048e-17, No Iterations 1
bounding omega, min: -3.00459917931e+28 max: 2.00613240281e+45 average: 7.17525251372e+39
smoothSolver:  Solving for k, Initial residual = 0.0928592609276, Final residual = 5.64686387046e-23, No Iterations 1
ExecutionTime = 10.5 s  ClockTime = 11 s

forces forces1 write:
    Sum of forces
        Total    : (0.00454154909137 -0.0034419900059 0.0292963656934)
        Pressure : (0.0045416616671 -0.00344066082855 0.0291840962495)
        Viscous  : (-1.12575733092e-07 -1.32917734846e-06 0.000112269443925)
    Sum of moments
        Total    : (-4.97097597606e-05 0.000250769142862 3.75207359514e-05)
        Pressure : (-4.95519646689e-05 0.000250137155799 3.75054911864e-05)
        Viscous  : (-1.57795091706e-07 6.3198706321e-07 1.52447649176e-08)
    writing force and moment files.

Courant Number mean: 0.00122884138336 max: 16.7024851376
Time = 0.0001

forces forces:
    rho: rhoInf
    Freestream density (rhoInf) set to 1.225
    Not including porosity effects

6-DoF rigid body motion
    Centre of rotation: (0 0 0)
    Centre of mass: (0 0 0)
    Orientation: (0.999999999999 -1.3129479937e-06 0 1.3129479937e-06 0.999999999999 0 0 0 1)
    Linear velocity: (0 0 0)
    Angular velocity: (0 0 0.0499701592759)
inverseDistance : detected 2 mesh regions
    zone:0 nCells:54000  voxels:(30 30 30) bb:(-0.500001086566 -0.500001086566 -0.800001086566) (1.08656569061e-06 1.08656569061e-06 0.0250010865657)
    zone:1 nCells:303211  voxels:(30 30 30) bb:(-0.500001086566 -0.500001574136 -0.800001086566) (1.91479235231e-06 1.06633452237e-06 0.0250010865663)

 Number of layers : 2
 Average volumetric ratio : 2(1.03178184127 1.02528319549)
 Number of holes cells : 2(3646 3235)
 Using layer : 2

Overset analysis : nCells : 357211
    calculated   : 333635
    interpolated : 6712 (from local:5860  mixed local/remote:852  remote:0)
    hole         : 16864

PIMPLE: iteration 1
smoothSolver:  Solving for Ux, Initial residual = 9.24167930282e-06, Final residual = 1.06782585676e-07, No Iterations 1
smoothSolver:  Solving for Uy, Initial residual = 1.80375356122e-05, Final residual = 2.15789880597e-07, No Iterations 1
smoothSolver:  Solving for Uz, Initial residual = 3.39590949326e-06, Final residual = 3.01598675723e-08, No Iterations 1
DILUPBiCGStab:  Solving for p, Initial residual = 0.000747181319378, Final residual = 8.57914681933e-07, No Iterations 102
time step continuity errors : sum local = 3.12586746465e-12, global = 1.8884076123e-12, cumulative = -1.71732637519e-09
DILUPBiCGStab:  Solving for p, Initial residual = 0.00302837605516, Final residual = 6.11672958005e-07, No Iterations 90
time step continuity errors : sum local = 7.28834576099e-13, global = 7.37750280486e-15, cumulative = -1.71731899769e-09
DILUPBiCGStab:  Solving for p, Initial residual = 0.000623447071949, Final residual = 9.85740906942e-07, No Iterations 34
time step continuity errors : sum local = 6.65328371802e-13, global = -1.80122800574e-13, cumulative = -1.71749912049e-09
DILUPBiCGStab:  Solving for p, Initial residual = 0.000112123418282, Final residual = 9.69370878135e-07, No Iterations 20
time step continuity errors : sum local = 7.09369474735e-13, global = -1.78557488847e-13, cumulative = -1.71767767797e-09
DILUPBiCGStab:  Solving for p, Initial residual = 2.58210767408e-05, Final residual = 9.62896327573e-07, No Iterations 6
time step continuity errors : sum local = 6.97338742681e-13, global = -1.57691558841e-13, cumulative = -1.71783536953e-09
smoothSolver:  Solving for omega, Initial residual = 0.538465062168, Final residual = 7.55796929237e-32, No Iterations 1
bounding omega, min: -2.37923912449e+38 max: 6.01839720842e+44 average: 2.15258489511e+39
smoothSolver:  Solving for k, Initial residual = 0.0259341147187, Final residual = 2.90816228642e-24, No Iterations 1
bounding k, min: -0.0449948579295 max: 1.48259042039 average: 0.125793877227
PIMPLE: iteration 2
smoothSolver:  Solving for Ux, Initial residual = 5.40285261878e-07, Final residual = 5.40285261878e-07, No Iterations 0
smoothSolver:  Solving for Uy, Initial residual = 9.81687521212e-07, Final residual = 9.81687521212e-07, No Iterations 0
smoothSolver:  Solving for Uz, Initial residual = 8.24246473355e-07, Final residual = 8.24246473355e-07, No Iterations 0
DILUPBiCGStab:  Solving for p, Initial residual = 0.000661341671263, Final residual = 8.00598482888e-07, No Iterations 76
time step continuity errors : sum local = 5.34863736475e-13, global = -2.57459514385e-13, cumulative = -1.71809282905e-09
DILUPBiCGStab:  Solving for p, Initial residual = 0.000104109850217, Final residual = 9.9975922167e-07, No Iterations 23
time step continuity errors : sum local = 7.71202479284e-13, global = -9.86839296052e-14, cumulative = -1.71819151298e-09
DILUPBiCGStab:  Solving for p, Initial residual = 1.88509528474e-05, Final residual = 8.70340136093e-07, No Iterations 14
time step continuity errors : sum local = 6.88576243311e-13, global = -1.18336060506e-13, cumulative = -1.71830984904e-09
DILUPBiCGStab:  Solving for p, Initial residual = 4.92126292659e-06, Final residual = 8.96115347945e-07, No Iterations 2
time step continuity errors : sum local = 7.10030101503e-13, global = -1.18863907324e-13, cumulative = -1.71842871295e-09
DILUPBiCGStab:  Solving for p, Initial residual = 1.55987756396e-06, Final residual = 8.55946999877e-07, No Iterations 1
time step continuity errors : sum local = 6.77592523507e-13, global = -1.18206033005e-13, cumulative = -1.71854691898e-09
smoothSolver:  Solving for omega, Initial residual = 0.538465062186, Final residual = 3.13324171841e-17, No Iterations 1
bounding omega, min: -4.10812546472e+34 max: 1.80551916253e+44 average: 6.45776255493e+38
smoothSolver:  Solving for k, Initial residual = 0.00854177263744, Final residual = 3.35245005714e-27, No Iterations 1
bounding k, min: -0.0425687669246 max: 1.36832368081 average: 0.117431452939
PIMPLE: iteration 3
smoothSolver:  Solving for Ux, Initial residual = 1.3980074596e-07, Final residual = 1.3980074596e-07, No Iterations 0
smoothSolver:  Solving for Uy, Initial residual = 2.67451187856e-07, Final residual = 2.67451187856e-07, No Iterations 0
smoothSolver:  Solving for Uz, Initial residual = 2.66097626764e-07, Final residual = 2.66097626764e-07, No Iterations 0
DILUPBiCGStab:  Solving for p, Initial residual = 0.000123823397107, Final residual = 9.35252700366e-07, No Iterations 11
time step continuity errors : sum local = 7.38914791223e-13, global = -1.56520045942e-13, cumulative = -1.71870343902e-09
DILUPBiCGStab:  Solving for p, Initial residual = 2.03897244118e-05, Final residual = 9.22938751075e-07, No Iterations 7
time step continuity errors : sum local = 7.34038473776e-13, global = -1.13193386741e-13, cumulative = -1.71881663241e-09
DILUPBiCGStab:  Solving for p, Initial residual = 4.63613738392e-06, Final residual = 9.77972072178e-07, No Iterations 7
time step continuity errors : sum local = 7.85459112973e-13, global = -1.42368298826e-13, cumulative = -1.71895900071e-09
DILUPBiCGStab:  Solving for p, Initial residual = 2.12915857726e-06, Final residual = 9.61499685335e-07, No Iterations 1
time step continuity errors : sum local = 7.7257887777e-13, global = -1.43293438846e-13, cumulative = -1.71910229415e-09
DILUPBiCGStab:  Solving for p, Initial residual = 1.09649310225e-06, Final residual = 8.7785185172e-07, No Iterations 1
time step continuity errors : sum local = 7.05072782244e-13, global = -1.43586297665e-13, cumulative = -1.71924588045e-09
smoothSolver:  Solving for omega, Initial residual = 0.538465062184, Final residual = 6.24960450722e-22, No Iterations 1
bounding omega, min: -1.04302135871e+28 max: 5.41655748758e+43 average: 1.9373474267e+38
smoothSolver:  Solving for k, Initial residual = 0.00271017074765, Final residual = 3.61110343762e-20, No Iterations 1
bounding k, min: -0.0488398930157 max: 1.29925606505 average: 0.112983292474
PIMPLE: iteration 4
smoothSolver:  Solving for Ux, Initial residual = 8.47201818256e-08, Final residual = 8.47201818256e-08, No Iterations 0
smoothSolver:  Solving for Uy, Initial residual = 1.70943822352e-07, Final residual = 1.70943822352e-07, No Iterations 0
smoothSolver:  Solving for Uz, Initial residual = 9.45230535818e-08, Final residual = 9.45230535818e-08, No Iterations 0
DILUPBiCGStab:  Solving for p, Initial residual = 4.48325834998e-05, Final residual = 9.62597503237e-07, No Iterations 6
time step continuity errors : sum local = 7.74912547726e-13, global = -1.42185303612e-13, cumulative = -1.71938806575e-09
DILUPBiCGStab:  Solving for p, Initial residual = 6.84991593382e-06, Final residual = 9.18974100269e-07, No Iterations 3
time step continuity errors : sum local = 7.39086681282e-13, global = -1.26175220077e-13, cumulative = -1.71951424097e-09
DILUPBiCGStab:  Solving for p, Initial residual = 1.96384218519e-06, Final residual = 9.53827835607e-07, No Iterations 2
time step continuity errors : sum local = 7.6763725574e-13, global = -1.20848435806e-13, cumulative = -1.71963508941e-09
DILUPBiCGStab:  Solving for p, Initial residual = 1.09168590503e-06, Final residual = 9.92493390438e-07, No Iterations 1
time step continuity errors : sum local = 7.99594996278e-13, global = -1.20234976888e-13, cumulative = -1.71975532438e-09
DILUPBiCGStab:  Solving for p, Initial residual = 9.75773979728e-07, Final residual = 9.75773979728e-07, No Iterations 0
time step continuity errors : sum local = 7.85992890485e-13, global = -1.20250288186e-13, cumulative = -1.71987557467e-09
smoothSolver:  Solving for omega, Initial residual = 0.538465062228, Final residual = 2.50189244085e-30, No Iterations 1
bounding omega, min: -2.17380552876e+30 max: 1.62496724627e+43 average: 5.81204247924e+37
smoothSolver:  Solving for k, Initial residual = 0.000841848737166, Final residual = 3.23772530729e-23, No Iterations 1
bounding k, min: -0.0485373863586 max: 1.23326494412 average: 0.109574159665
PIMPLE: iteration 5
smoothSolver:  Solving for Ux, Initial residual = 7.38876080568e-08, Final residual = 7.38876080568e-08, No Iterations 0
smoothSolver:  Solving for Uy, Initial residual = 1.52471888045e-07, Final residual = 1.52471888045e-07, No Iterations 0
smoothSolver:  Solving for Uz, Initial residual = 4.37486857421e-08, Final residual = 4.37486857421e-08, No Iterations 0
DILUPBiCGStab:  Solving for p, Initial residual = 3.50867320758e-05, Final residual = 9.65404046551e-07, No Iterations 12
time step continuity errors : sum local = 7.47994996824e-13, global = 3.76709235934e-14, cumulative = -1.71983790375e-09
DILUPBiCGStab:  Solving for p, Initial residual = 5.40416630596e-06, Final residual = 9.55019790626e-07, No Iterations 4
time step continuity errors : sum local = 7.36384862526e-13, global = 1.89985212468e-14, cumulative = -1.71981890523e-09
DILUPBiCGStab:  Solving for p, Initial residual = 1.60259573593e-06, Final residual = 9.77367440583e-07, No Iterations 1
time step continuity errors : sum local = 7.54715981321e-13, global = 1.75527082885e-14, cumulative = -1.71980135252e-09
DILUPBiCGStab:  Solving for p, Initial residual = 1.08426425089e-06, Final residual = 9.62845368186e-07, No Iterations 1
time step continuity errors : sum local = 7.42418551289e-13, global = 1.43683909723e-14, cumulative = -1.71978698413e-09
DILUPBiCGStab:  Solving for p, Initial residual = 9.67966039286e-07, Final residual = 9.67966039286e-07, No Iterations 0
time step continuity errors : sum local = 7.46774923556e-13, global = 1.44707443302e-14, cumulative = -1.71977251338e-09
smoothSolver:  Solving for omega, Initial residual = 0.538465062227, Final residual = 6.02778212358e-22, No Iterations 1
bounding omega, min: -1.39158126498e+32 max: 4.87490173882e+42 average: 1.74367953515e+37
smoothSolver:  Solving for k, Initial residual = 0.000328871730975, Final residual = 6.55910537723e-24, No Iterations 1
bounding k, min: -0.046865726132 max: 1.18630315007 average: 0.107065694126
ExecutionTime = 16.74 s  ClockTime = 17 s

forces forces1 write:
    Sum of forces
        Total    : (-0.00205077218397 0.00153708085555 -0.0132673615629)
        Pressure : (-0.0020444055046 0.00153381439528 -0.0133293795058)
        Viscous  : (-6.36667936718e-06 3.26646027439e-06 6.20179429393e-05)
    Sum of moments
        Total    : (2.2817473339e-05 -0.000113040960144 -1.6666653134e-05)
        Pressure : (2.29021259704e-05 -0.000113331284248 -1.66264376721e-05)
        Viscous  : (-8.46526314341e-08 2.9032410397e-07 -4.02154618956e-08)
    writing force and moment files.

Courant Number mean: 0.00123526148013 max: 11.9872552529
Time = 0.00015

forces forces:
    rho: rhoInf
    Freestream density (rhoInf) set to 1.225
    Not including porosity effects

6-DoF rigid body motion
    Centre of rotation: (0 0 0)
    Centre of mass: (0 0 0)
    Orientation: (0.999999999985 -5.55012773937e-06 0 5.55012773937e-06 0.999999999985 0 0 0 1)
    Linear velocity: (0 0 0)
    Angular velocity: (0 0 0.119517030552)
inverseDistance : detected 2 mesh regions
    zone:0 nCells:54000  voxels:(30 30 30) bb:(-0.500001086566 -0.500001086566 -0.800001086566) (1.08656569061e-06 1.08656569061e-06 0.0250010865657)
    zone:1 nCells:303211  voxels:(30 30 30) bb:(-0.500001086565 -0.500003147554 -0.800001086568) (3.49435682185e-06 1.0663360881e-06 0.0250010865677)

 Number of layers : 2
 Average volumetric ratio : 2(1.03178184178 1.025283202)
 Number of holes cells : 2(3646 3235)
 Using layer : 2

Overset analysis : nCells : 357211
    calculated   : 333635
    interpolated : 6712 (from local:5859  mixed local/remote:853  remote:0)
    hole         : 16864

PIMPLE: iteration 1
smoothSolver:  Solving for Ux, Initial residual = 2.58919336286e-06, Final residual = 1.91997245338e-08, No Iterations 1
smoothSolver:  Solving for Uy, Initial residual = 4.93221610652e-06, Final residual = 3.811732748e-08, No Iterations 1
smoothSolver:  Solving for Uz, Initial residual = 2.94261816685e-06, Final residual = 5.04636553036e-09, No Iterations 1
DILUPBiCGStab:  Solving for p, Initial residual = 0.00212102723105, Final residual = 9.41694197101e-07, No Iterations 113
time step continuity errors : sum local = 7.02666792307e-13, global = 3.3354034421e-13, cumulative = -1.71943897304e-09
DILUPBiCGStab:  Solving for p, Initial residual = 0.00208492821882, Final residual = 5.99070856899e-07, No Iterations 62
time step continuity errors : sum local = 3.10662163111e-13, global = 1.91756630756e-13, cumulative = -1.71924721641e-09
DILUPBiCGStab:  Solving for p, Initial residual = 0.000276332737779, Final residual = 9.55759005363e-07, No Iterations 29
time step continuity errors : sum local = 4.42313557967e-13, global = 1.50784783547e-13, cumulative = -1.71909643162e-09
DILUPBiCGStab:  Solving for p, Initial residual = 4.92419329732e-05, Final residual = 8.85082815471e-07, No Iterations 18
time step continuity errors : sum local = 4.27964531071e-13, global = 9.10744625723e-14, cumulative = -1.71900535716e-09
DILUPBiCGStab:  Solving for p, Initial residual = 1.12982025347e-05, Final residual = 9.85280560757e-07, No Iterations 3
time step continuity errors : sum local = 4.77005395621e-13, global = 9.12169665952e-14, cumulative = -1.7189141402e-09
smoothSolver:  Solving for omega, Initial residual = 0.538465063287, Final residual = 2.49724109507e-29, No Iterations 1
bounding omega, min: -6.16705624945e+30 max: 1.07931831221e+45 average: 3.16267874213e+39
smoothSolver:  Solving for k, Initial residual = 0.995920305779, Final residual = 4.76165448299e-20, No Iterations 1
bounding k, min: -0.0398970525565 max: 1.12947918864 average: 0.0996129710076
PIMPLE: iteration 2
smoothSolver:  Solving for Ux, Initial residual = 4.16016876719e-07, Final residual = 4.16016876719e-07, No Iterations 0
smoothSolver:  Solving for Uy, Initial residual = 7.23181663044e-07, Final residual = 7.23181663044e-07, No Iterations 0
smoothSolver:  Solving for Uz, Initial residual = 7.89356123903e-07, Final residual = 7.89356123903e-07, No Iterations 0
DILUPBiCGStab:  Solving for p, Initial residual = 0.000350055499793, Final residual = 9.90928394922e-07, No Iterations 30
time step continuity errors : sum local = 4.51687359961e-13, global = -2.03473869087e-13, cumulative = -1.71911761406e-09
DILUPBiCGStab:  Solving for p, Initial residual = 5.1981578664e-05, Final residual = 9.62536919736e-07, No Iterations 37
time step continuity errors : sum local = 4.56159681412e-13, global = -7.73661414349e-14, cumulative = -1.71919498021e-09
DILUPBiCGStab:  Solving for p, Initial residual = 1.45844599721e-05, Final residual = 9.91529926216e-07, No Iterations 7
time step continuity errors : sum local = 5.00023471717e-13, global = -6.19481314459e-14, cumulative = -1.71925692834e-09
DILUPBiCGStab:  Solving for p, Initial residual = 3.64418531345e-06, Final residual = 9.53781611225e-07, No Iterations 2
time step continuity errors : sum local = 4.80704144314e-13, global = -6.23303084962e-14, cumulative = -1.71931925865e-09
DILUPBiCGStab:  Solving for p, Initial residual = 1.41544215876e-06, Final residual = 9.77782217251e-07, No Iterations 1
time step continuity errors : sum local = 4.93081159087e-13, global = -6.26403710775e-14, cumulative = -1.71938189902e-09
smoothSolver:  Solving for omega, Initial residual = 0.538464074647, Final residual = 1.14482585435e-27, No Iterations 1
bounding omega, min: -1.46502796353e+31 max: 3.23795493664e+44 average: 9.48866142719e+38
smoothSolver:  Solving for k, Initial residual = 0.172490568758, Final residual = 6.99804938157e-25, No Iterations 1
bounding k, min: -0.0379043778869 max: 1.0585386747 average: 0.0955758275608
PIMPLE: iteration 3
smoothSolver:  Solving for Ux, Initial residual = 1.29598820133e-07, Final residual = 1.29598820133e-07, No Iterations 0
smoothSolver:  Solving for Uy, Initial residual = 2.33408381283e-07, Final residual = 2.33408381283e-07, No Iterations 0
smoothSolver:  Solving for Uz, Initial residual = 2.44768116013e-07, Final residual = 2.44768116013e-07, No Iterations 0
DILUPBiCGStab:  Solving for p, Initial residual = 0.000106010606865, Final residual = 9.67155728239e-07, No Iterations 20
time step continuity errors : sum local = 4.56512831029e-13, global = -6.42972451464e-14, cumulative = -1.71944619626e-09
DILUPBiCGStab:  Solving for p, Initial residual = 1.77485095907e-05, Final residual = 9.85726671459e-07, No Iterations 12
time step continuity errors : sum local = 4.91312460905e-13, global = -4.88335728857e-14, cumulative = -1.71949502983e-09
DILUPBiCGStab:  Solving for p, Initial residual = 5.1811555525e-06, Final residual = 9.64156572181e-07, No Iterations 3
time step continuity errors : sum local = 4.80499665258e-13, global = -5.52258222192e-14, cumulative = -1.71955025566e-09
DILUPBiCGStab:  Solving for p, Initial residual = 1.72701239034e-06, Final residual = 9.0058221299e-07, No Iterations 6
time step continuity errors : sum local = 4.5374605061e-13, global = -5.5014381435e-14, cumulative = -1.71960527004e-09
DILUPBiCGStab:  Solving for p, Initial residual = 1.58226740912e-06, Final residual = 8.33575792236e-07, No Iterations 1
time step continuity errors : sum local = 4.1934788745e-13, global = -5.37879775483e-14, cumulative = -1.71965905802e-09
smoothSolver:  Solving for omega, Initial residual = 0.538461269071, Final residual = 1.62352413421e-33, No Iterations 1
bounding omega, min: -2.16254671663e+41 max: 5.21881549963e+44 average: 1.75494365605e+39
smoothSolver:  Solving for k, Initial residual = 0.0153256125114, Final residual = 1.13686715428e-25, No Iterations 1
bounding k, min: -0.0395669583261 max: 0.986132131634 average: 0.0915432165495
PIMPLE: iteration 4
smoothSolver:  Solving for Ux, Initial residual = 7.40110157966e-08, Final residual = 7.40110157966e-08, No Iterations 0
smoothSolver:  Solving for Uy, Initial residual = 1.38945582954e-07, Final residual = 1.38945582954e-07, No Iterations 0
smoothSolver:  Solving for Uz, Initial residual = 8.22528673076e-08, Final residual = 8.22528673076e-08, No Iterations 0
DILUPBiCGStab:  Solving for p, Initial residual = 7.29649414868e-05, Final residual = 9.54731182717e-07, No Iterations 13
time step continuity errors : sum local = 4.71356316798e-13, global = -5.1293942372e-15, cumulative = -1.71966418741e-09
DILUPBiCGStab:  Solving for p, Initial residual = 1.12496649945e-05, Final residual = 9.67874548991e-07, No Iterations 5
time step continuity errors : sum local = 4.73045191122e-13, global = -1.58773841268e-14, cumulative = -1.71968006479e-09
DILUPBiCGStab:  Solving for p, Initial residual = 2.69318647993e-06, Final residual = 9.84385263224e-07, No Iterations 3
time step continuity errors : sum local = 4.81048977359e-13, global = -1.99864312098e-14, cumulative = -1.71970005123e-09
DILUPBiCGStab:  Solving for p, Initial residual = 1.26726146612e-06, Final residual = 9.61901629419e-07, No Iterations 1
time step continuity errors : sum local = 4.69251869272e-13, global = -2.01444987369e-14, cumulative = -1.71972019572e-09
DILUPBiCGStab:  Solving for p, Initial residual = 9.87707824501e-07, Final residual = 9.87707824501e-07, No Iterations 0
time step continuity errors : sum local = 4.82250308859e-13, global = -2.00918937829e-14, cumulative = -1.71974028762e-09
smoothSolver:  Solving for omega, Initial residual = 0.53846487223, Final residual = 2.26265343402e-19, No Iterations 1
bounding omega, min: -3.21611217747e+37 max: 5.87505614282e+50 average: 1.71946961254e+45
smoothSolver:  Solving for k, Initial residual = 0.00051119950018, Final residual = 5.37965020411e-26, No Iterations 1
bounding k, min: -0.0425130864469 max: 0.924170242941 average: 0.0865692197116
PIMPLE: iteration 5
smoothSolver:  Solving for Ux, Initial residual = 6.2087886795e-08, Final residual = 6.2087886795e-08, No Iterations 0
smoothSolver:  Solving for Uy, Initial residual = 1.13571298133e-07, Final residual = 1.13571298133e-07, No Iterations 0
smoothSolver:  Solving for Uz, Initial residual = 3.37606756764e-08, Final residual = 3.37606756764e-08, No Iterations 0
DILUPBiCGStab:  Solving for p, Initial residual = 6.81735156681e-05, Final residual = 9.4930836264e-07, No Iterations 23
time step continuity errors : sum local = 4.48318705795e-13, global = -2.67416122243e-14, cumulative = -1.71976702923e-09
DILUPBiCGStab:  Solving for p, Initial residual = 1.0712215214e-05, Final residual = 9.97885749286e-07, No Iterations 5
time step continuity errors : sum local = 4.67649200313e-13, global = -2.79996223769e-14, cumulative = -1.71979502885e-09
DILUPBiCGStab:  Solving for p, Initial residual = 2.30474708498e-06, Final residual = 9.97509868437e-07, No Iterations 2
time step continuity errors : sum local = 4.67560054303e-13, global = -2.80721460546e-14, cumulative = -1.719823101e-09
DILUPBiCGStab:  Solving for p, Initial residual = 1.20380253333e-06, Final residual = 9.98059150523e-07, No Iterations 1
time step continuity errors : sum local = 4.6794936492e-13, global = -2.8403527659e-14, cumulative = -1.71985150453e-09
DILUPBiCGStab:  Solving for p, Initial residual = 1.03414110131e-06, Final residual = 9.61022692519e-07, No Iterations 1
time step continuity errors : sum local = 4.50227601523e-13, global = -2.91231911585e-14, cumulative = -1.71988062772e-09
smoothSolver:  Solving for omega, Initial residual = 0.538464068293, Final residual = 5.97841334755e-38, No Iterations 1
bounding omega, min: -9.79499325242e+37 max: 1.76251684285e+50 average: 5.15840883801e+44
smoothSolver:  Solving for k, Initial residual = 0.000161313886898, Final residual = 2.41277993357e-23, No Iterations 1
bounding k, min: -0.0454597042441 max: 0.889771722792 average: 0.0832206155809
ExecutionTime = 23.89 s  ClockTime = 24 s

forces forces1 write:
    Sum of forces
        Total    : (4.7554957404e-05 -5.66397253014e-05 0.000361212695613)
        Pressure : (5.65085042982e-05 -6.20941181807e-05 0.000317691135412)
        Viscous  : (-8.95354689418e-06 5.45439287923e-06 4.35215602009e-05)
    Sum of moments
        Total    : (-5.37778167549e-07 2.95035151929e-06 6.17545331128e-07)
        Pressure : (-4.77341695149e-07 2.76587442311e-06 6.83356335999e-07)
        Viscous  : (-6.04364724001e-08 1.84477096186e-07 -6.58110048715e-08)
    writing force and moment files.

Courant Number mean: 0.00124825860016 max: 8.03816244314
Time = 0.0002

forces forces:
    rho: rhoInf
    Freestream density (rhoInf) set to 1.225
    Not including porosity effects

6-DoF rigid body motion
    Centre of rotation: (0 0 0)
    Centre of mass: (0 0 0)
    Orientation: (0.999999999921 -1.25959328269e-05 0 1.25959328269e-05 0.999999999921 0 0 0 1)
    Linear velocity: (0 0 0)
    Angular velocity: (0 0 0.16231517296)
inverseDistance : detected 2 mesh regions
    zone:0 nCells:54000  voxels:(30 30 30) bb:(-0.500001086566 -0.500001086566 -0.800001086566) (1.08656569061e-06 1.08656569061e-06 0.0250010865657)
    zone:1 nCells:303211  voxels:(30 30 30) bb:(-0.500001086558 -0.500005763938 -0.80000108657) (6.54268233836e-06 1.06633888577e-06 0.0250010865703)

 Number of layers : 2
 Average volumetric ratio : 2(1.03178185337 1.02528320663)
 Number of holes cells : 2(3646 3235)
 Using layer : 2

Overset analysis : nCells : 357211
    calculated   : 333635
    interpolated : 6712 (from local:5859  mixed local/remote:853  remote:0)
    hole         : 16864

PIMPLE: iteration 1
smoothSolver:  Solving for Ux, Initial residual = 1.41150231831e-06, Final residual = 3.40884316199e-09, No Iterations 1
smoothSolver:  Solving for Uy, Initial residual = 2.4518236869e-06, Final residual = 7.12621204308e-09, No Iterations 1
smoothSolver:  Solving for Uz, Initial residual = 2.57894365636e-06, Final residual = 2.50565758529e-09, No Iterations 1
DILUPBiCGStab:  Solving for p, Initial residual = 0.00115362714456, Final residual = 4.9870081143e-07, No Iterations 82
time step continuity errors : sum local = 2.27225131459e-13, global = 6.33746183275e-14, cumulative = -1.7198172531e-09
DILUPBiCGStab:  Solving for p, Initial residual = 0.000127430267648, Final residual = 7.35932877634e-07, No Iterations 20
time step continuity errors : sum local = 4.15495913085e-13, global = -1.38450037744e-14, cumulative = -1.7198310981e-09
DILUPBiCGStab:  Solving for p, Initial residual = 1.68584035341e-05, Final residual = 9.3817018728e-07, No Iterations 3
time step continuity errors : sum local = 5.35402568555e-13, global = -1.22461414721e-14, cumulative = -1.71984334424e-09
DILUPBiCGStab:  Solving for p, Initial residual = 3.49752288419e-06, Final residual = 9.81467891189e-07, No Iterations 1
time step continuity errors : sum local = 5.60690322055e-13, global = -1.17987963996e-14, cumulative = -1.71985514304e-09
DILUPBiCGStab:  Solving for p, Initial residual = 1.39006923247e-06, Final residual = 9.94260561854e-07, No Iterations 1
time step continuity errors : sum local = 5.68356268387e-13, global = -1.22917523434e-14, cumulative = -1.71986743479e-09
smoothSolver:  Solving for omega, Initial residual = 0.538464084478, Final residual = 7.97756176017e-21, No Iterations 1
bounding omega, min: -1.50046417773e+31 max: 5.28755052854e+49 average: 1.54852829862e+44
smoothSolver:  Solving for k, Initial residual = 5.03336512862e-05, Final residual = 1.12729630071e-29, No Iterations 1
bounding k, min: -0.0304757432 max: 0.758097831002 average: 0.0795576533549
PIMPLE: iteration 2
smoothSolver:  Solving for Ux, Initial residual = 4.34075873259e-07, Final residual = 4.34075873259e-07, No Iterations 0
smoothSolver:  Solving for Uy, Initial residual = 7.53211762189e-07, Final residual = 7.53211762189e-07, No Iterations 0
smoothSolver:  Solving for Uz, Initial residual = 7.64255655931e-07, Final residual = 7.64255655931e-07, No Iterations 0
DILUPBiCGStab:  Solving for p, Initial residual = 0.00017646225883, Final residual = 9.85506085239e-07, No Iterations 29
time step continuity errors : sum local = 5.2513256904e-13, global = -2.64013977403e-13, cumulative = -1.72013144877e-09
DILUPBiCGStab:  Solving for p, Initial residual = 2.52612901368e-05, Final residual = 9.63174413899e-07, No Iterations 23
time step continuity errors : sum local = 5.3405848493e-13, global = -1.69863152637e-13, cumulative = -1.72030131192e-09
DILUPBiCGStab:  Solving for p, Initial residual = 8.94778150815e-06, Final residual = 9.76133618914e-07, No Iterations 7
time step continuity errors : sum local = 5.57438575831e-13, global = -1.67047641618e-13, cumulative = -1.72046835956e-09
DILUPBiCGStab:  Solving for p, Initial residual = 2.54747592364e-06, Final residual = 9.31577399639e-07, No Iterations 2
time step continuity errors : sum local = 5.31409769406e-13, global = -1.66956137799e-13, cumulative = -1.7206353157e-09
DILUPBiCGStab:  Solving for p, Initial residual = 1.18521098561e-06, Final residual = 9.36379390777e-07, No Iterations 1
time step continuity errors : sum local = 5.34454631909e-13, global = -1.66977035429e-13, cumulative = -1.72080229274e-09
smoothSolver:  Solving for omega, Initial residual = 0.538464084478, Final residual = 4.93978074855e-36, No Iterations 1
bounding omega, min: -3.5963862843e+33 max: 1.58626515856e+49 average: 4.64558509389e+43
smoothSolver:  Solving for k, Initial residual = 1.58087410163e-05, Final residual = 4.46298813531e-27, No Iterations 1
bounding k, min: -0.0287060165353 max: 0.657368606105 average: 0.0778881636309
PIMPLE: iteration 3
smoothSolver:  Solving for Ux, Initial residual = 1.35838880405e-07, Final residual = 1.35838880405e-07, No Iterations 0
smoothSolver:  Solving for Uy, Initial residual = 2.38747571988e-07, Final residual = 2.38747571988e-07, No Iterations 0
smoothSolver:  Solving for Uz, Initial residual = 2.36153569039e-07, Final residual = 2.36153569039e-07, No Iterations 0
DILUPBiCGStab:  Solving for p, Initial residual = 5.09582618697e-05, Final residual = 8.99014341853e-07, No Iterations 15
time step continuity errors : sum local = 5.01795184989e-13, global = -2.01223822533e-13, cumulative = -1.72100351656e-09
DILUPBiCGStab:  Solving for p, Initial residual = 8.92760107266e-06, Final residual = 9.88346603694e-07, No Iterations 21
time step continuity errors : sum local = 5.61362628771e-13, global = -1.46028170988e-13, cumulative = -1.72114954473e-09
DILUPBiCGStab:  Solving for p, Initial residual = 4.0966376322e-06, Final residual = 9.66037963704e-07, No Iterations 2
time step continuity errors : sum local = 5.52672935038e-13, global = -1.43317060345e-13, cumulative = -1.72129286179e-09
DILUPBiCGStab:  Solving for p, Initial residual = 1.39215903234e-06, Final residual = 9.67934479814e-07, No Iterations 1
time step continuity errors : sum local = 5.5410568602e-13, global = -1.42790243702e-13, cumulative = -1.72143565204e-09
DILUPBiCGStab:  Solving for p, Initial residual = 1.02948265083e-06, Final residual = 8.74756900074e-07, No Iterations 1
time step continuity errors : sum local = 4.98526527698e-13, global = -1.4160451867e-13, cumulative = -1.72157725655e-09
smoothSolver:  Solving for omega, Initial residual = 0.538464084463, Final residual = 6.00645388952e-38, No Iterations 1
bounding omega, min: -1.07107381485e+39 max: 4.75879547568e+48 average: 1.39370485743e+43
smoothSolver:  Solving for k, Initial residual = 5.77046249401e-06, Final residual = 1.56504620639e-23, No Iterations 1
bounding k, min: -0.0374121156488 max: 0.596013774546 average: 0.0770833584728
PIMPLE: iteration 4
smoothSolver:  Solving for Ux, Initial residual = 5.99966321915e-08, Final residual = 5.99966321915e-08, No Iterations 0
smoothSolver:  Solving for Uy, Initial residual = 1.08091517821e-07, Final residual = 1.08091517821e-07, No Iterations 0
smoothSolver:  Solving for Uz, Initial residual = 7.72626919725e-08, Final residual = 7.72626919725e-08, No Iterations 0
DILUPBiCGStab:  Solving for p, Initial residual = 2.05768033261e-05, Final residual = 9.22032173233e-07, No Iterations 5
time step continuity errors : sum local = 5.28458676891e-13, global = -1.59882768716e-13, cumulative = -1.72173713932e-09
DILUPBiCGStab:  Solving for p, Initial residual = 3.97326595202e-06, Final residual = 9.61693419028e-07, No Iterations 3
time step continuity errors : sum local = 5.54069019086e-13, global = -1.47311660738e-13, cumulative = -1.72188445098e-09
DILUPBiCGStab:  Solving for p, Initial residual = 1.59940852803e-06, Final residual = 9.96922475202e-07, No Iterations 2
time step continuity errors : sum local = 5.76331008287e-13, global = -1.42981352103e-13, cumulative = -1.72202743234e-09
DILUPBiCGStab:  Solving for p, Initial residual = 1.06333113017e-06, Final residual = 9.27936788366e-07, No Iterations 1
time step continuity errors : sum local = 5.35442651228e-13, global = -1.42954178465e-13, cumulative = -1.72217038651e-09
DILUPBiCGStab:  Solving for p, Initial residual = 9.21932079901e-07, Final residual = 9.21932079901e-07, No Iterations 0
time step continuity errors : sum local = 5.31557687763e-13, global = -1.43091298268e-13, cumulative = -1.72231347781e-09
smoothSolver:  Solving for omega, Initial residual = 0.538464084539, Final residual = 9.99663361174e-30, No Iterations 1
bounding omega, min: -6.78211246038e+34 max: 1.47191231233e+50 average: 4.16237967085e+44
smoothSolver:  Solving for k, Initial residual = 0.898347303989, Final residual = 4.45685520725e-17, No Iterations 1
bounding k, min: -0.0235788886766 max: 0.562656863566 average: 0.0766588451398
PIMPLE: iteration 5
smoothSolver:  Solving for Ux, Initial residual = 3.97498284865e-08, Final residual = 3.97498284865e-08, No Iterations 0
smoothSolver:  Solving for Uy, Initial residual = 7.30641333633e-08, Final residual = 7.30641333633e-08, No Iterations 0
smoothSolver:  Solving for Uz, Initial residual = 2.93331413995e-08, Final residual = 2.93331413995e-08, No Iterations 0
DILUPBiCGStab:  Solving for p, Initial residual = 1.12313015754e-05, Final residual = 9.19646219269e-07, No Iterations 4
time step continuity errors : sum local = 5.3268903567e-13, global = -1.59587028843e-13, cumulative = -1.72247306484e-09
DILUPBiCGStab:  Solving for p, Initial residual = 2.37814130721e-06, Final residual = 9.59828090686e-07, No Iterations 3
time step continuity errors : sum local = 5.57220492762e-13, global = -1.55621797343e-13, cumulative = -1.72262868664e-09
DILUPBiCGStab:  Solving for p, Initial residual = 1.21540721875e-06, Final residual = 9.905590782e-07, No Iterations 1
time step continuity errors : sum local = 5.75408390746e-13, global = -1.54789722735e-13, cumulative = -1.72278347636e-09
DILUPBiCGStab:  Solving for p, Initial residual = 1.0126726914e-06, Final residual = 9.1693168866e-07, No Iterations 1
time step continuity errors : sum local = 5.30149518874e-13, global = -1.52690696537e-13, cumulative = -1.72293616706e-09
DILUPBiCGStab:  Solving for p, Initial residual = 9.22791543135e-07, Final residual = 9.22791543135e-07, No Iterations 0
time step continuity errors : sum local = 5.33787693465e-13, global = -1.52608868136e-13, cumulative = -1.72308877593e-09
smoothSolver:  Solving for omega, Initial residual = 0.538464027574, Final residual = 4.33656436776e-24, No Iterations 1
bounding omega, min: -6.82751503137e+35 max: 4.41573693698e+49 average: 1.24871390455e+44
smoothSolver:  Solving for k, Initial residual = 0.224829158551, Final residual = 5.81673769435e-26, No Iterations 1
bounding k, min: -0.0240864580108 max: 0.544860807773 average: 0.0763848320072
ExecutionTime = 30.63 s  ClockTime = 31 s

forces forces1 write:
    Sum of forces
        Total    : (6.85843127881e-05 -6.90738602611e-05 0.000449491283412)
        Pressure : (7.83971528667e-05 -7.53098034743e-05 0.000414780896085)
        Viscous  : (-9.81284007862e-06 6.23594321317e-06 3.47103873275e-05)
    Sum of moments
        Total    : (-6.86557046308e-07 4.10476482049e-06 7.94362276437e-07)
        Pressure : (-6.37674528317e-07 3.96272570278e-06 8.69629841485e-07)
        Viscous  : (-4.88825179915e-08 1.42039117715e-07 -7.5267565048e-08)
    writing force and moment files.

Courant Number mean: 0.00125760668589 max: 6.93325572602
Time = 0.00025

forces forces:
    rho: rhoInf
    Freestream density (rhoInf) set to 1.225
    Not including porosity effects

6-DoF rigid body motion
    Centre of rotation: (0 0 0)
    Centre of mass: (0 0 0)
    Orientation: (0.999999999764 -2.17181838081e-05 0 2.17181838081e-05 0.999999999764 0 0 0 1)
    Linear velocity: (0 0 0)
    Angular velocity: (0 0 0.202574866346)
inverseDistance : detected 2 mesh regions
    zone:0 nCells:54000  voxels:(30 30 30) bb:(-0.500001086566 -0.500001086566 -0.800001086566) (1.08656569061e-06 1.08656569061e-06 0.0250010865657)
    zone:1 nCells:303211  voxels:(30 30 30) bb:(-0.500001086537 -0.500009151378 -0.800001086574) (1.04897939973e-05 1.06634250813e-06 0.0250010865737)

 Number of layers : 2
 Average volumetric ratio : 2(1.03178185448 1.02528322543)
 Number of holes cells : 2(3646 3235)
 Using layer : 2

Overset analysis : nCells : 357211
    calculated   : 333635
    interpolated : 6712 (from local:5858  mixed local/remote:854  remote:0)
    hole         : 16864

PIMPLE: iteration 1
smoothSolver:  Solving for Ux, Initial residual = 1.37641636104e-06, Final residual = 2.06446602006e-09, No Iterations 1
smoothSolver:  Solving for Uy, Initial residual = 2.4036779588e-06, Final residual = 4.45633546455e-09, No Iterations 1
smoothSolver:  Solving for Uz, Initial residual = 2.49516331306e-06, Final residual = 2.45429930566e-09, No Iterations 1
DILUPBiCGStab:  Solving for p, Initial residual = 0.000470693338478, Final residual = 9.88817414858e-07, No Iterations 33
time step continuity errors : sum local = 5.63525477246e-13, global = -2.78227588333e-13, cumulative = -1.72336700351e-09
DILUPBiCGStab:  Solving for p, Initial residual = 3.80514501436e-05, Final residual = 7.50794152452e-07, No Iterations 43
time step continuity errors : sum local = 4.42861861249e-13, global = -4.1914658484e-14, cumulative = -1.72340891817e-09
DILUPBiCGStab:  Solving for p, Initial residual = 6.03508658145e-06, Final residual = 9.02253995756e-07, No Iterations 2
time step continuity errors : sum local = 5.33834877368e-13, global = -3.93514283226e-14, cumulative = -1.7234482696e-09
DILUPBiCGStab:  Solving for p, Initial residual = 1.5742739349e-06, Final residual = 9.83503675442e-07, No Iterations 1
time step continuity errors : sum local = 5.82691957094e-13, global = -3.94678989273e-14, cumulative = -1.7234877375e-09
DILUPBiCGStab:  Solving for p, Initial residual = 1.02447334358e-06, Final residual = 9.76245109999e-07, No Iterations 1
time step continuity errors : sum local = 5.78816107723e-13, global = -4.0091308412e-14, cumulative = -1.72352782881e-09
smoothSolver:  Solving for omega, Initial residual = 0.538464027574, Final residual = 1.1042735244e-35, No Iterations 1
bounding omega, min: -2.37458236197e+26 max: 1.32472108109e+49 average: 3.74614171429e+43
smoothSolver:  Solving for k, Initial residual = 0.0523978345882, Final residual = 3.89588095106e-26, No Iterations 1
bounding k, min: -0.0202952486 max: 0.411348300176 average: 0.0757583538895
PIMPLE: iteration 2
smoothSolver:  Solving for Ux, Initial residual = 4.42745852076e-07, Final residual = 4.42745852076e-07, No Iterations 0
smoothSolver:  Solving for Uy, Initial residual = 7.79464830518e-07, Final residual = 7.79464830518e-07, No Iterations 0
smoothSolver:  Solving for Uz, Initial residual = 7.53872159224e-07, Final residual = 7.53872159224e-07, No Iterations 0
DILUPBiCGStab:  Solving for p, Initial residual = 0.000119301938675, Final residual = 9.82568634112e-07, No Iterations 12
time step continuity errors : sum local = 5.69004680697e-13, global = -1.59278276725e-13, cumulative = -1.72368710709e-09
DILUPBiCGStab:  Solving for p, Initial residual = 1.75241669319e-05, Final residual = 9.88887493631e-07, No Iterations 22
time step continuity errors : sum local = 5.48917946017e-13, global = -1.7190591685e-13, cumulative = -1.723859013e-09
DILUPBiCGStab:  Solving for p, Initial residual = 7.05302136161e-06, Final residual = 9.83892507719e-07, No Iterations 9
time step continuity errors : sum local = 5.66195947121e-13, global = -1.7264785662e-13, cumulative = -1.72403166086e-09
DILUPBiCGStab:  Solving for p, Initial residual = 2.31931041169e-06, Final residual = 9.36881188212e-07, No Iterations 2
time step continuity errors : sum local = 5.38243191818e-13, global = -1.74461686578e-13, cumulative = -1.72420612255e-09
DILUPBiCGStab:  Solving for p, Initial residual = 1.10402142016e-06, Final residual = 8.9575873628e-07, No Iterations 1
time step continuity errors : sum local = 5.13218585663e-13, global = -1.74892625241e-13, cumulative = -1.72438101517e-09
smoothSolver:  Solving for omega, Initial residual = 0.538464027574, Final residual = 2.45453280686e-34, No Iterations 1
bounding omega, min: -1.59320040576e+24 max: 3.97416324328e+48 average: 1.12384251429e+43
smoothSolver:  Solving for k, Initial residual = 0.0148537445787, Final residual = 3.93633902924e-27, No Iterations 1
bounding k, min: -0.0361204133689 max: 0.336307666821 average: 0.0754472870662
PIMPLE: iteration 3
smoothSolver:  Solving for Ux, Initial residual = 1.41471690822e-07, Final residual = 1.41471690822e-07, No Iterations 0
smoothSolver:  Solving for Uy, Initial residual = 2.53355825462e-07, Final residual = 2.53355825462e-07, No Iterations 0
smoothSolver:  Solving for Uz, Initial residual = 2.30932466919e-07, Final residual = 2.30932466919e-07, No Iterations 0
DILUPBiCGStab:  Solving for p, Initial residual = 4.03319684163e-05, Final residual = 9.97224676048e-07, No Iterations 9
time step continuity errors : sum local = 5.63718066911e-13, global = -2.26992316188e-13, cumulative = -1.72460800749e-09
DILUPBiCGStab:  Solving for p, Initial residual = 7.42232594354e-06, Final residual = 9.86752085813e-07, No Iterations 25
time step continuity errors : sum local = 5.56562261255e-13, global = -1.26073015391e-13, cumulative = -1.7247340805e-09
DILUPBiCGStab:  Solving for p, Initial residual = 4.1124783391e-06, Final residual = 9.91666005689e-07, No Iterations 3
time step continuity errors : sum local = 5.71433067088e-13, global = -1.3371273648e-13, cumulative = -1.72486779324e-09
DILUPBiCGStab:  Solving for p, Initial residual = 1.32460999072e-06, Final residual = 8.79080813819e-07, No Iterations 1
time step continuity errors : sum local = 5.03556296424e-13, global = -1.34830833007e-13, cumulative = -1.72500262407e-09
DILUPBiCGStab:  Solving for p, Initial residual = 9.29019037334e-07, Final residual = 9.29019037334e-07, No Iterations 0
time step continuity errors : sum local = 5.3399789286e-13, global = -1.34739498682e-13, cumulative = -1.72513736357e-09
smoothSolver:  Solving for omega, Initial residual = 0.538464027574, Final residual = 2.89506115501e-36, No Iterations 1
bounding omega, min: -4.53453051865e+26 max: 1.19224897298e+48 average: 3.37152754305e+42
smoothSolver:  Solving for k, Initial residual = 0.00438865270578, Final residual = 2.02858573288e-27, No Iterations 1
bounding k, min: -0.0303648519561 max: 0.297362096929 average: 0.075298721331
PIMPLE: iteration 4
smoothSolver:  Solving for Ux, Initial residual = 6.47213503913e-08, Final residual = 6.47213503913e-08, No Iterations 0
smoothSolver:  Solving for Uy, Initial residual = 1.2509287294e-07, Final residual = 1.2509287294e-07, No Iterations 0
smoothSolver:  Solving for Uz, Initial residual = 7.62391586942e-08, Final residual = 7.62391586942e-08, No Iterations 0
DILUPBiCGStab:  Solving for p, Initial residual = 1.88462039491e-05, Final residual = 7.52446804777e-07, No Iterations 9
time step continuity errors : sum local = 4.33507020561e-13, global = -1.0535586774e-13, cumulative = -1.72524271944e-09
DILUPBiCGStab:  Solving for p, Initial residual = 3.58418514696e-06, Final residual = 9.83236651125e-07, No Iterations 2
time step continuity errors : sum local = 5.7749144235e-13, global = -9.45025907124e-14, cumulative = -1.72533722203e-09
DILUPBiCGStab:  Solving for p, Initial residual = 1.44401789944e-06, Final residual = 9.68802969381e-07, No Iterations 1
time step continuity errors : sum local = 5.69449265197e-13, global = -9.35860251502e-14, cumulative = -1.72543080805e-09
DILUPBiCGStab:  Solving for p, Initial residual = 1.05089108686e-06, Final residual = 9.81653363592e-07, No Iterations 1
time step continuity errors : sum local = 5.81967881679e-13, global = -9.31700892967e-14, cumulative = -1.72552397814e-09
DILUPBiCGStab:  Solving for p, Initial residual = 9.38767560723e-07, Final residual = 9.38767560723e-07, No Iterations 0
time step continuity errors : sum local = 5.55263718514e-13, global = -9.31419360454e-14, cumulative = -1.72561712008e-09
smoothSolver:  Solving for omega, Initial residual = 0.538464027574, Final residual = 4.03418507528e-24, No Iterations 1
bounding omega, min: -4.381406098e+30 max: 3.57674691895e+47 average: 1.01145826784e+42
smoothSolver:  Solving for k, Initial residual = 0.00131180024239, Final residual = 1.00786684907e-26, No Iterations 1
bounding k, min: -0.0343337558088 max: 0.280476655407 average: 0.0751629461359
PIMPLE: iteration 5
smoothSolver:  Solving for Ux, Initial residual = 4.5835662738e-08, Final residual = 4.5835662738e-08, No Iterations 0
smoothSolver:  Solving for Uy, Initial residual = 9.01862705418e-08, Final residual = 9.01862705418e-08, No Iterations 0
smoothSolver:  Solving for Uz, Initial residual = 2.88910927751e-08, Final residual = 2.88910927751e-08, No Iterations 0
DILUPBiCGStab:  Solving for p, Initial residual = 1.55711035692e-05, Final residual = 9.82143330037e-07, No Iterations 6
time step continuity errors : sum local = 5.8405062699e-13, global = -1.61092265682e-13, cumulative = -1.72577821234e-09
DILUPBiCGStab:  Solving for p, Initial residual = 2.71274772004e-06, Final residual = 9.85315931058e-07, No Iterations 3
time step continuity errors : sum local = 5.80855467778e-13, global = -1.60827575706e-13, cumulative = -1.72593903992e-09
DILUPBiCGStab:  Solving for p, Initial residual = 1.25231703802e-06, Final residual = 9.76710880088e-07, No Iterations 1
time step continuity errors : sum local = 5.7346984422e-13, global = -1.60519717042e-13, cumulative = -1.72609955964e-09
DILUPBiCGStab:  Solving for p, Initial residual = 1.02070221599e-06, Final residual = 9.1748647514e-07, No Iterations 1
time step continuity errors : sum local = 5.36467511928e-13, global = -1.57215887934e-13, cumulative = -1.72625677553e-09
DILUPBiCGStab:  Solving for p, Initial residual = 9.22749517118e-07, Final residual = 9.22749517118e-07, No Iterations 0
time step continuity errors : sum local = 5.39753980734e-13, global = -1.57379535667e-13, cumulative = -1.72641415506e-09
smoothSolver:  Solving for omega, Initial residual = 0.538464027759, Final residual = 8.34969407111e-32, No Iterations 1
bounding omega, min: -1.19872989558e+31 max: 1.07302407569e+47 average: 3.03443325216e+41
smoothSolver:  Solving for k, Initial residual = 0.000393632412773, Final residual = 3.9626547182e-28, No Iterations 1
bounding k, min: -0.024795385083 max: 0.276663420016 average: 0.0750678209768
ExecutionTime = 37.18 s  ClockTime = 37 s

forces forces1 write:
    Sum of forces
        Total    : (6.32015750761e-05 -6.52317850661e-05 0.000411279613827)
        Pressure : (7.31294577384e-05 -7.15729615471e-05 0.000381790547442)
        Viscous  : (-9.92788266227e-06 6.34117648102e-06 2.94890663851e-05)
    Sum of moments
        Total    : (-6.29358238891e-07 3.72705961509e-06 7.43956419014e-07)
        Pressure : (-5.87975344672e-07 3.60723917555e-06 8.21015357523e-07)
        Viscous  : (-4.13828942187e-08 1.19820439532e-07 -7.70589385083e-08)
    writing force and moment files.

Courant Number mean: 0.00126345047721 max: 6.66076599213
Time = 0.0003

forces forces:
    rho: rhoInf
    Freestream density (rhoInf) set to 1.225
    Not including porosity effects

6-DoF rigid body motion
    Centre of rotation: (0 0 0)
    Centre of mass: (0 0 0)
    Orientation: (0.999999999462 -3.28002020561e-05 0 3.28002020561e-05 0.999999999462 0 0 0 1)
    Linear velocity: (0 0 0)
    Angular velocity: (0 0 0.24070586374)
inverseDistance : detected 2 mesh regions
    zone:0 nCells:54000  voxels:(30 30 30) bb:(-0.500001086566 -0.500001086566 -0.800001086566) (1.08656569061e-06 1.08656569061e-06 0.0250010865657)
    zone:1 nCells:303211  voxels:(30 30 30) bb:(-0.500001086494 -0.500013266514 -0.800001086578) (1.52848671487e-05 1.06634690869e-06 0.0250010865778)

 Number of layers : 2
 Average volumetric ratio : 2(1.03178186888 1.0252832429)
 Number of holes cells : 2(3646 3235)
 Using layer : 2

Overset analysis : nCells : 357211
    calculated   : 333635
    interpolated : 6712 (from local:5858  mixed local/remote:854  remote:0)
    hole         : 16864

PIMPLE: iteration 1
smoothSolver:  Solving for Ux, Initial residual = 1.39276537434e-06, Final residual = 2.14974691911e-09, No Iterations 1
smoothSolver:  Solving for Uy, Initial residual = 2.47518510337e-06, Final residual = 4.41573905339e-09, No Iterations 1
smoothSolver:  Solving for Uz, Initial residual = 2.46735578062e-06, Final residual = 2.42098286291e-09, No Iterations 1
DILUPBiCGStab:  Solving for p, Initial residual = 0.000339637749916, Final residual = 9.98666191491e-07, No Iterations 55
time step continuity errors : sum local = 5.79254933284e-13, global = 2.47642807225e-13, cumulative = -1.72616651225e-09
DILUPBiCGStab:  Solving for p, Initial residual = 2.53291449079e-05, Final residual = 6.36945769767e-07, No Iterations 34
time step continuity errors : sum local = 3.46667432439e-13, global = 1.65079637966e-13, cumulative = -1.72600143262e-09
DILUPBiCGStab:  Solving for p, Initial residual = 4.59003984594e-06, Final residual = 9.54014939854e-07, No Iterations 1
time step continuity errors : sum local = 5.39229074969e-13, global = 1.65021098742e-13, cumulative = -1.72583641152e-09
DILUPBiCGStab:  Solving for p, Initial residual = 1.40241242219e-06, Final residual = 9.86297594771e-07, No Iterations 1
time step continuity errors : sum local = 5.58240756686e-13, global = 1.65032616532e-13, cumulative = -1.7256713789e-09
DILUPBiCGStab:  Solving for p, Initial residual = 9.78020099195e-07, Final residual = 9.78020099195e-07, No Iterations 0
time step continuity errors : sum local = 5.53126847926e-13, global = 1.64969104701e-13, cumulative = -1.7255064098e-09
smoothSolver:  Solving for omega, Initial residual = 0.538464027805, Final residual = 1.59375212797e-20, No Iterations 1
bounding omega, min: -4.15609062078e+27 max: 3.21907222706e+46 average: 9.1033107904e+40
smoothSolver:  Solving for k, Initial residual = 0.000118166332475, Final residual = 7.30566759652e-21, No Iterations 1
bounding k, min: -0.0117658169956 max: 0.24005628263 average: 0.0748451431547
PIMPLE: iteration 2
smoothSolver:  Solving for Ux, Initial residual = 4.62972473548e-07, Final residual = 4.62972473548e-07, No Iterations 0
smoothSolver:  Solving for Uy, Initial residual = 8.39617081514e-07, Final residual = 8.39617081514e-07, No Iterations 0
smoothSolver:  Solving for Uz, Initial residual = 7.39601729043e-07, Final residual = 7.39601729043e-07, No Iterations 0
DILUPBiCGStab:  Solving for p, Initial residual = 0.000105069760923, Final residual = 8.77960419031e-07, No Iterations 9
time step continuity errors : sum local = 5.02839194956e-13, global = -4.18192807023e-14, cumulative = -1.72554822908e-09
DILUPBiCGStab:  Solving for p, Initial residual = 1.53596831306e-05, Final residual = 9.96887324875e-07, No Iterations 15
time step continuity errors : sum local = 5.78439320121e-13, global = 3.3824699096e-14, cumulative = -1.72551440438e-09
DILUPBiCGStab:  Solving for p, Initial residual = 5.91642381845e-06, Final residual = 9.78668415834e-07, No Iterations 8
time step continuity errors : sum local = 5.68124461061e-13, global = 4.05702719107e-14, cumulative = -1.72547383411e-09
DILUPBiCGStab:  Solving for p, Initial residual = 2.14186544065e-06, Final residual = 9.71616341095e-07, No Iterations 1
time step continuity errors : sum local = 5.64624485418e-13, global = 4.15309828327e-14, cumulative = -1.72543230312e-09
DILUPBiCGStab:  Solving for p, Initial residual = 1.11299861327e-06, Final residual = 8.82900814021e-07, No Iterations 1
time step continuity errors : sum local = 5.12098343709e-13, global = 4.20271171929e-14, cumulative = -1.72539027601e-09
smoothSolver:  Solving for omega, Initial residual = 0.538464028277, Final residual = 2.63939511259e-27, No Iterations 1
bounding omega, min: -1.31156296632e+28 max: 9.65721668117e+45 average: 2.73106835665e+40
smoothSolver:  Solving for k, Initial residual = 3.55648398444e-05, Final residual = 2.36269148741e-29, No Iterations 1
bounding k, min: -0.0253309586543 max: 0.240047944433 average: 0.0747192673314
PIMPLE: iteration 3
smoothSolver:  Solving for Ux, Initial residual = 1.48789864464e-07, Final residual = 1.48789864464e-07, No Iterations 0
smoothSolver:  Solving for Uy, Initial residual = 2.7440680112e-07, Final residual = 2.7440680112e-07, No Iterations 0
smoothSolver:  Solving for Uz, Initial residual = 2.26296822903e-07, Final residual = 2.26296822903e-07, No Iterations 0
DILUPBiCGStab:  Solving for p, Initial residual = 3.73862084877e-05, Final residual = 9.81469888494e-07, No Iterations 7
time step continuity errors : sum local = 5.61151268992e-13, global = -5.63208362297e-14, cumulative = -1.72544659684e-09
DILUPBiCGStab:  Solving for p, Initial residual = 6.46743009412e-06, Final residual = 9.89399442157e-07, No Iterations 13
time step continuity errors : sum local = 5.68832743888e-13, global = -2.40686278022e-14, cumulative = -1.72547066547e-09
DILUPBiCGStab:  Solving for p, Initial residual = 3.26718889251e-06, Final residual = 9.72842529516e-07, No Iterations 2
time step continuity errors : sum local = 5.62294867315e-13, global = -2.58638734863e-14, cumulative = -1.72549652934e-09
DILUPBiCGStab:  Solving for p, Initial residual = 1.21004117578e-06, Final residual = 9.13695196727e-07, No Iterations 1
time step continuity errors : sum local = 5.26529915587e-13, global = -2.60238376732e-14, cumulative = -1.72552255318e-09
DILUPBiCGStab:  Solving for p, Initial residual = 9.48257758145e-07, Final residual = 9.48257758145e-07, No Iterations 0
time step continuity errors : sum local = 5.46999260514e-13, global = -2.5885891384e-14, cumulative = -1.72554843907e-09
smoothSolver:  Solving for omega, Initial residual = 0.538464028277, Final residual = 1.53718375938e-20, No Iterations 1
bounding omega, min: -5.57499306891e+21 max: 2.89716500435e+45 average: 8.19320506995e+39
smoothSolver:  Solving for k, Initial residual = 1.06865281892e-05, Final residual = 6.37246965547e-22, No Iterations 1
bounding k, min: -0.0290125454195 max: 0.240066909276 average: 0.0746690424694
PIMPLE: iteration 4
smoothSolver:  Solving for Ux, Initial residual = 6.50719342127e-08, Final residual = 6.50719342127e-08, No Iterations 0
smoothSolver:  Solving for Uy, Initial residual = 1.21782631865e-07, Final residual = 1.21782631865e-07, No Iterations 0
smoothSolver:  Solving for Uz, Initial residual = 7.33153567894e-08, Final residual = 7.33153567894e-08, No Iterations 0
DILUPBiCGStab:  Solving for p, Initial residual = 1.76959221801e-05, Final residual = 9.91731195311e-07, No Iterations 5
time step continuity errors : sum local = 5.71439691786e-13, global = -3.93583559075e-14, cumulative = -1.72558779743e-09
DILUPBiCGStab:  Solving for p, Initial residual = 3.45865312927e-06, Final residual = 9.91411102805e-07, No Iterations 3
time step continuity errors : sum local = 5.72084379995e-13, global = -3.72933351661e-14, cumulative = -1.72562509076e-09
DILUPBiCGStab:  Solving for p, Initial residual = 1.46485095482e-06, Final residual = 9.70998805483e-07, No Iterations 2
time step continuity errors : sum local = 5.60551345567e-13, global = -3.60226170572e-14, cumulative = -1.72566111338e-09
DILUPBiCGStab:  Solving for p, Initial residual = 1.04778164481e-06, Final residual = 9.48864822757e-07, No Iterations 1
time step continuity errors : sum local = 5.47469512022e-13, global = -3.70942071583e-14, cumulative = -1.72569820759e-09
DILUPBiCGStab:  Solving for p, Initial residual = 9.51681008425e-07, Final residual = 9.51681008425e-07, No Iterations 0
time step continuity errors : sum local = 5.49020853113e-13, global = -3.71527245794e-14, cumulative = -1.72573536031e-09
smoothSolver:  Solving for omega, Initial residual = 0.538464028277, Final residual = 6.99120596475e-31, No Iterations 1
bounding omega, min: -1.91329330083e+31 max: 8.69149501305e+44 average: 2.45796152099e+39
smoothSolver:  Solving for k, Initial residual = 3.20816839015e-06, Final residual = 2.99862576617e-30, No Iterations 1
bounding k, min: -0.0192243941558 max: 0.240418373578 average: 0.0746532939638
PIMPLE: iteration 5
smoothSolver:  Solving for Ux, Initial residual = 3.9264109289e-08, Final residual = 3.9264109289e-08, No Iterations 0
smoothSolver:  Solving for Uy, Initial residual = 7.37143493648e-08, Final residual = 7.37143493648e-08, No Iterations 0
smoothSolver:  Solving for Uz, Initial residual = 2.69888628334e-08, Final residual = 2.69888628334e-08, No Iterations 0
DILUPBiCGStab:  Solving for p, Initial residual = 7.81884832478e-06, Final residual = 9.97164740034e-07, No Iterations 4
time step continuity errors : sum local = 5.75461171915e-13, global = -5.32402044878e-14, cumulative = -1.72578860052e-09
DILUPBiCGStab:  Solving for p, Initial residual = 1.91986997933e-06, Final residual = 9.88451074504e-07, No Iterations 3
time step continuity errors : sum local = 5.67568472794e-13, global = -4.37219510984e-14, cumulative = -1.72583232247e-09
DILUPBiCGStab:  Solving for p, Initial residual = 1.18259253556e-06, Final residual = 9.82911470212e-07, No Iterations 1
time step continuity errors : sum local = 5.63777090136e-13, global = -4.3139878993e-14, cumulative = -1.72587546235e-09
DILUPBiCGStab:  Solving for p, Initial residual = 1.01730218702e-06, Final residual = 9.66814990899e-07, No Iterations 1
time step continuity errors : sum local = 5.53969862445e-13, global = -4.22837662219e-14, cumulative = -1.72591774611e-09
DILUPBiCGStab:  Solving for p, Initial residual = 9.74049466905e-07, Final residual = 9.74049466905e-07, No Iterations 0
time step continuity errors : sum local = 5.58390009483e-13, global = -4.23489291726e-14, cumulative = -1.72596009504e-09
smoothSolver:  Solving for omega, Initial residual = 0.538464028277, Final residual = 2.37929889131e-31, No Iterations 1
bounding omega, min: -8.28777116655e+31 max: 2.60744850391e+44 average: 7.37388456335e+38
smoothSolver:  Solving for k, Initial residual = 9.62634343066e-07, Final residual = 9.62634343066e-07, No Iterations 0
ExecutionTime = 42.54 s  ClockTime = 43 s

forces forces1 write:
    Sum of forces
        Total    : (6.09810433368e-05 -6.32307894366e-05 0.000388431219001)
        Pressure : (7.07309441409e-05 -6.93930272968e-05 0.000362502721207)
        Viscous  : (-9.74990080409e-06 6.16223786018e-06 2.59284977946e-05)
    Sum of moments
        Total    : (-6.03129039783e-07 3.55450346099e-06 7.2340404554e-07)
        Pressure : (-5.67238893582e-07 3.44835002977e-06 7.99092898511e-07)
        Viscous  : (-3.5890146201e-08 1.06153431226e-07 -7.56888529714e-08)
    writing force and moment files.

Courant Number mean: 0.00126994692588 max: 6.42882754592
Time = 0.00035

forces forces:
    rho: rhoInf
    Freestream density (rhoInf) set to 1.225
    Not including porosity effects

6-DoF rigid body motion
    Centre of rotation: (0 0 0)
    Centre of mass: (0 0 0)
    Orientation: (0.999999998954 -4.57386866135e-05 0 4.57386866135e-05 0.999999998954 0 0 0 1)
    Linear velocity: (0 0 0)
    Angular velocity: (0 0 0.27683351896)
inverseDistance : detected 2 mesh regions
    zone:0 nCells:54000  voxels:(30 30 30) bb:(-0.500001086566 -0.500001086566 -0.800001086566) (1.08656569061e-06 1.08656569061e-06 0.0250010865657)
    zone:1 nCells:303211  voxels:(30 30 30) bb:(-0.50000108642 -0.500018070977 -0.800001086583) (2.08832135496e-05 1.06635204643e-06 0.0250010865826)

 Number of layers : 2
 Average volumetric ratio : 2(1.03178207995 1.02528326829)
 Number of holes cells : 2(3646 3235)
 Using layer : 2

Overset analysis : nCells : 357211
    calculated   : 333635
    interpolated : 6712 (from local:5857  mixed local/remote:855  remote:0)
    hole         : 16864

PIMPLE: iteration 1
smoothSolver:  Solving for Ux, Initial residual = 1.45172697e-06, Final residual = 1.76196798321e-09, No Iterations 1
smoothSolver:  Solving for Uy, Initial residual = 2.66622636974e-06, Final residual = 3.74488120323e-09, No Iterations 1
smoothSolver:  Solving for Uz, Initial residual = 2.41211623935e-06, Final residual = 2.14785444045e-09, No Iterations 1
DILUPBiCGStab:  Solving for p, Initial residual = 0.000293161499517, Final residual = 4.53380966269e-07, No Iterations 56
time step continuity errors : sum local = 2.53566937421e-13, global = 3.50720465339e-14, cumulative = -1.725925023e-09
DILUPBiCGStab:  Solving for p, Initial residual = 1.7859462762e-05, Final residual = 9.19544408717e-07, No Iterations 5
time step continuity errors : sum local = 5.35581000924e-13, global = 3.05947099308e-14, cumulative = -1.72589442829e-09
DILUPBiCGStab:  Solving for p, Initial residual = 3.17312292061e-06, Final residual = 9.68581569231e-07, No Iterations 2
time step continuity errors : sum local = 5.64653338397e-13, global = 2.9778441979e-14, cumulative = -1.72586464984e-09
DILUPBiCGStab:  Solving for p, Initial residual = 1.24286240022e-06, Final residual = 9.1409972597e-07, No Iterations 1
time step continuity errors : sum local = 5.3174698002e-13, global = 2.93884113311e-14, cumulative = -1.72583526143e-09
DILUPBiCGStab:  Solving for p, Initial residual = 9.57222457871e-07, Final residual = 9.57222457871e-07, No Iterations 0
time step continuity errors : sum local = 5.57578696284e-13, global = 2.93555019011e-14, cumulative = -1.72580590593e-09
smoothSolver:  Solving for omega, Initial residual = 0.538464028277, Final residual = 2.06121182347e-20, No Iterations 1
bounding omega, min: -7.63272198156e+30 max: 7.82234551174e+43 average: 2.21216536902e+38
smoothSolver:  Solving for k, Initial residual = 9.62634341255e-07, Final residual = 9.62634341255e-07, No Iterations 0
PIMPLE: iteration 2
smoothSolver:  Solving for Ux, Initial residual = 4.77445421743e-07, Final residual = 4.77445421743e-07, No Iterations 0
smoothSolver:  Solving for Uy, Initial residual = 8.95388029514e-07, Final residual = 8.95388029514e-07, No Iterations 0
smoothSolver:  Solving for Uz, Initial residual = 7.23182657076e-07, Final residual = 7.23182657076e-07, No Iterations 0
DILUPBiCGStab:  Solving for p, Initial residual = 8.31771594672e-05, Final residual = 9.54174352216e-07, No Iterations 10
time step continuity errors : sum local = 5.47945685644e-13, global = -1.24668542281e-13, cumulative = -1.72593057447e-09
DILUPBiCGStab:  Solving for p, Initial residual = 1.21066883322e-05, Final residual = 9.91494634202e-07, No Iterations 22
time step continuity errors : sum local = 5.50733100144e-13, global = -1.27931938442e-13, cumulative = -1.72605850641e-09
DILUPBiCGStab:  Solving for p, Initial residual = 5.75834255445e-06, Final residual = 9.12194895976e-07, No Iterations 5
time step continuity errors : sum local = 5.13168283422e-13, global = -1.26936889821e-13, cumulative = -1.7261854433e-09
DILUPBiCGStab:  Solving for p, Initial residual = 1.73685938887e-06, Final residual = 8.44170457676e-07, No Iterations 1
time step continuity errors : sum local = 4.73162520886e-13, global = -1.27592144956e-13, cumulative = -1.72631303545e-09
DILUPBiCGStab:  Solving for p, Initial residual = 9.52754910372e-07, Final residual = 9.52754910372e-07, No Iterations 0
time step continuity errors : sum local = 5.38066565493e-13, global = -1.27587806363e-13, cumulative = -1.72644062325e-09
smoothSolver:  Solving for omega, Initial residual = 0.538464028277, Final residual = 2.92863881769e-17, No Iterations 1
bounding omega, min: -2.81900616433e+27 max: 2.34670365352e+43 average: 6.63649611403e+37
smoothSolver:  Solving for k, Initial residual = 9.62634340076e-07, Final residual = 9.62634340076e-07, No Iterations 0
PIMPLE: iteration 3
smoothSolver:  Solving for Ux, Initial residual = 1.50904203379e-07, Final residual = 1.50904203379e-07, No Iterations 0
smoothSolver:  Solving for Uy, Initial residual = 2.89105463917e-07, Final residual = 2.89105463917e-07, No Iterations 0
smoothSolver:  Solving for Uz, Initial residual = 2.21616779189e-07, Final residual = 2.21616779189e-07, No Iterations 0
DILUPBiCGStab:  Solving for p, Initial residual = 2.65909553881e-05, Final residual = 9.84283028193e-07, No Iterations 6
time step continuity errors : sum local = 5.50040326414e-13, global = -2.3013330615e-13, cumulative = -1.72667075656e-09
DILUPBiCGStab:  Solving for p, Initial residual = 4.92913815939e-06, Final residual = 9.88392334987e-07, No Iterations 27
time step continuity errors : sum local = 5.55832023789e-13, global = -1.24165256301e-13, cumulative = -1.72679492181e-09
DILUPBiCGStab:  Solving for p, Initial residual = 3.40929260276e-06, Final residual = 9.56532779897e-07, No Iterations 2
time step continuity errors : sum local = 5.45176660969e-13, global = -1.28718093552e-13, cumulative = -1.72692363991e-09
DILUPBiCGStab:  Solving for p, Initial residual = 1.19920037582e-06, Final residual = 9.25318609566e-07, No Iterations 1
time step continuity errors : sum local = 5.27557478251e-13, global = -1.31433048724e-13, cumulative = -1.72705507296e-09
DILUPBiCGStab:  Solving for p, Initial residual = 9.39935031712e-07, Final residual = 9.39935031712e-07, No Iterations 0
[...]
time step continuity errors : sum local = 2.10093047478e-13, global = 5.84252775087e-14, cumulative = -1.65265502722e-09
smoothSolver:  Solving for omega, Initial residual = 1.02906736804e-07, Final residual = 1.02906736804e-07, No Iterations 0
smoothSolver:  Solving for k, Initial residual = 5.82760348543e-07, Final residual = 5.82760348543e-07, No Iterations 0
PIMPLE: iteration 2
smoothSolver:  Solving for Ux, Initial residual = 1.12898664219e-06, Final residual = 1.6903894773e-09, No Iterations 1
smoothSolver:  Solving for Uy, Initial residual = 3.81415045869e-07, Final residual = 3.81415045869e-07, No Iterations 0
smoothSolver:  Solving for Uz, Initial residual = 4.29673671012e-07, Final residual = 4.29673671012e-07, No Iterations 0
DILUPBiCGStab:  Solving for p, Initial residual = 2.70326191763e-05, Final residual = 8.85118658874e-07, No Iterations 8
time step continuity errors : sum local = 2.04593928155e-13, global = 8.3895185452e-14, cumulative = -1.65257113203e-09
DILUPBiCGStab:  Solving for p, Initial residual = 2.63251728563e-06, Final residual = 9.49208284603e-07, No Iterations 3
time step continuity errors : sum local = 2.14140984598e-13, global = 1.2882620698e-13, cumulative = -1.65244230582e-09
DILUPBiCGStab:  Solving for p, Initial residual = 1.09040531148e-06, Final residual = 4.71752973645e-07, No Iterations 45
time step continuity errors : sum local = 1.08764268009e-13, global = 4.07720944265e-14, cumulative = -1.65240153373e-09
DILUPBiCGStab:  Solving for p, Initial residual = 9.46503173578e-07, Final residual = 9.46503173578e-07, No Iterations 0
time step continuity errors : sum local = 2.40762467838e-13, global = 3.80666488755e-14, cumulative = -1.65236346708e-09
DILUPBiCGStab:  Solving for p, Initial residual = 9.51426780852e-07, Final residual = 9.51426780852e-07, No Iterations 0
time step continuity errors : sum local = 2.4202170215e-13, global = 3.80542060165e-14, cumulative = -1.65232541287e-09
smoothSolver:  Solving for omega, Initial residual = 1.02906736804e-07, Final residual = 1.02906736804e-07, No Iterations 0
smoothSolver:  Solving for k, Initial residual = 5.82760348543e-07, Final residual = 5.82760348543e-07, No Iterations 0
PIMPLE: iteration 3
smoothSolver:  Solving for Ux, Initial residual = 3.88816814712e-07, Final residual = 3.88816814712e-07, No Iterations 0
smoothSolver:  Solving for Uy, Initial residual = 1.31617253846e-07, Final residual = 1.31617253846e-07, No Iterations 0
smoothSolver:  Solving for Uz, Initial residual = 1.31113934406e-07, Final residual = 1.31113934406e-07, No Iterations 0
DILUPBiCGStab:  Solving for p, Initial residual = 7.66070696281e-06, Final residual = 8.96100110097e-07, No Iterations 2
time step continuity errors : sum local = 2.14922311043e-13, global = 1.72450298712e-16, cumulative = -1.65232524042e-09
DILUPBiCGStab:  Solving for p, Initial residual = 1.14577356505e-06, Final residual = 8.33833926832e-07, No Iterations 1
time step continuity errors : sum local = 1.98221247936e-13, global = 2.0417815607e-14, cumulative = -1.65230482261e-09
DILUPBiCGStab:  Solving for p, Initial residual = 8.33247288649e-07, Final residual = 8.33247288649e-07, No Iterations 0
time step continuity errors : sum local = 1.98016622888e-13, global = 2.03913542085e-14, cumulative = -1.65228443125e-09
DILUPBiCGStab:  Solving for p, Initial residual = 8.34690745906e-07, Final residual = 8.34690745906e-07, No Iterations 0
time step continuity errors : sum local = 1.98386330245e-13, global = 2.03925416036e-14, cumulative = -1.65226403871e-09
DILUPBiCGStab:  Solving for p, Initial residual = 8.35072229058e-07, Final residual = 8.35072229058e-07, No Iterations 0
time step continuity errors : sum local = 1.98483951067e-13, global = 2.03925561871e-14, cumulative = -1.65224364616e-09
smoothSolver:  Solving for omega, Initial residual = 1.02906736804e-07, Final residual = 1.02906736804e-07, No Iterations 0
smoothSolver:  Solving for k, Initial residual = 5.82760348543e-07, Final residual = 5.82760348543e-07, No Iterations 0
PIMPLE: iteration 4
smoothSolver:  Solving for Ux, Initial residual = 1.73633212296e-07, Final residual = 1.73633212296e-07, No Iterations 0
smoothSolver:  Solving for Uy, Initial residual = 5.90484760072e-08, Final residual = 5.90484760072e-08, No Iterations 0
smoothSolver:  Solving for Uz, Initial residual = 4.29624495364e-08, Final residual = 4.29624495364e-08, No Iterations 0
DILUPBiCGStab:  Solving for p, Initial residual = 2.61148139217e-06, Final residual = 9.91306362683e-07, No Iterations 1
time step continuity errors : sum local = 2.37617437555e-13, global = 1.81971246116e-15, cumulative = -1.65224182644e-09
DILUPBiCGStab:  Solving for p, Initial residual = 1.05443734977e-06, Final residual = 9.25577370395e-07, No Iterations 1
time step continuity errors : sum local = 2.19618399891e-13, global = 3.39653620456e-14, cumulative = -1.65220786108e-09
DILUPBiCGStab:  Solving for p, Initial residual = 9.20470389847e-07, Final residual = 9.20470389847e-07, No Iterations 0
time step continuity errors : sum local = 2.1829830012e-13, global = 3.39842508572e-14, cumulative = -1.65217387683e-09
DILUPBiCGStab:  Solving for p, Initial residual = 9.20296687665e-07, Final residual = 9.20296687665e-07, No Iterations 0
time step continuity errors : sum local = 2.18253935064e-13, global = 3.3984649822e-14, cumulative = -1.65213989218e-09
DILUPBiCGStab:  Solving for p, Initial residual = 9.20262505495e-07, Final residual = 9.20262505495e-07, No Iterations 0
time step continuity errors : sum local = 2.18245190854e-13, global = 3.39846581885e-14, cumulative = -1.65210590752e-09
smoothSolver:  Solving for omega, Initial residual = 1.02906736804e-07, Final residual = 1.02906736804e-07, No Iterations 0
smoothSolver:  Solving for k, Initial residual = 5.82760348543e-07, Final residual = 5.82760348543e-07, No Iterations 0
PIMPLE: iteration 5
smoothSolver:  Solving for Ux, Initial residual = 1.12964768345e-07, Final residual = 1.12964768345e-07, No Iterations 0
smoothSolver:  Solving for Uy, Initial residual = 3.85773789887e-08, Final residual = 3.85773789887e-08, No Iterations 0
smoothSolver:  Solving for Uz, Initial residual = 1.63344258799e-08, Final residual = 1.63344258799e-08, No Iterations 0
DILUPBiCGStab:  Solving for p, Initial residual = 1.21339703262e-06, Final residual = 8.96557223753e-07, No Iterations 1
time step continuity errors : sum local = 2.13235373015e-13, global = 2.95860260751e-14, cumulative = -1.6520763215e-09
DILUPBiCGStab:  Solving for p, Initial residual = 9.07014713726e-07, Final residual = 9.07014713726e-07, No Iterations 0
time step continuity errors : sum local = 2.16039552172e-13, global = 3.0205205252e-14, cumulative = -1.65204611629e-09
DILUPBiCGStab:  Solving for p, Initial residual = 9.08317933929e-07, Final residual = 9.08317933929e-07, No Iterations 0
time step continuity errors : sum local = 2.16375064082e-13, global = 3.02144135368e-14, cumulative = -1.65201590188e-09
DILUPBiCGStab:  Solving for p, Initial residual = 9.08562007668e-07, Final residual = 9.08562007668e-07, No Iterations 0
time step continuity errors : sum local = 2.16437536939e-13, global = 3.0214534413e-14, cumulative = -1.65198568734e-09
DILUPBiCGStab:  Solving for p, Initial residual = 9.08614661777e-07, Final residual = 9.08614661777e-07, No Iterations 0
time step continuity errors : sum local = 2.16451007798e-13, global = 3.02145354718e-14, cumulative = -1.65195547281e-09
smoothSolver:  Solving for omega, Initial residual = 1.02906736804e-07, Final residual = 1.02906736804e-07, No Iterations 0
smoothSolver:  Solving for k, Initial residual = 5.82760348543e-07, Final residual = 5.82760348543e-07, No Iterations 0
ExecutionTime = 1020.26 s  ClockTime = 1021 s

forces forces1 write:
    Sum of forces
        Total    : (4.09352910477e-05 -2.87871377403e-05 0.000198099776494)
        Pressure : (4.29226234543e-05 -2.69658340833e-05 0.000195417086921)
        Viscous  : (-1.98733240661e-06 -1.82130365696e-06 2.68268957233e-06)
    Sum of moments
        Total    : (-4.11386536502e-07 1.59534692131e-06 3.19077903521e-07)
        Pressure : (-4.09385988823e-07 1.58063460177e-06 3.06785371657e-07)
        Viscous  : (-2.00054767905e-09 1.47123195394e-08 1.22925318636e-08)
    writing force and moment files.

Courant Number mean: 0.00167412674601 max: 3.05164274366
Time = 0.01015

forces forces:
    rho: rhoInf
    Freestream density (rhoInf) set to 1.225
    Not including porosity effects

6-DoF rigid body motion
    Centre of rotation: (0 0 0)
    Centre of mass: (0 0 0)
    Orientation: (0.999866092557 -0.016364502916 0 0.016364502916 0.999866092557 0 0 0 1)
    Linear velocity: (0 0 0)
    Angular velocity: (0 0 2.62125090772)
inverseDistance : detected 2 mesh regions
    zone:0 nCells:54000  voxels:(30 30 30) bb:(-0.500001086566 -0.500001086566 -0.800001086566) (1.08656569061e-06 1.08656569061e-06 0.0250010865657)
    zone:1 nCells:303211  voxels:(30 30 30) bb:(-0.499980256313 -0.506041107042 -0.800001092617) (0.00708192264432 1.07282966484e-06 0.0250010926167)

 Number of layers : 2
 Average volumetric ratio : 2(1.04470316303 1.02523284721)
 Number of holes cells : 2(3651 3241)
 Using layer : 2

Overset analysis : nCells : 357211
    calculated   : 333605
    interpolated : 6726 (from local:5863  mixed local/remote:863  remote:0)
    hole         : 16880

PIMPLE: iteration 1
smoothSolver:  Solving for Ux, Initial residual = 3.59121254459e-06, Final residual = 5.52791045511e-09, No Iterations 1
smoothSolver:  Solving for Uy, Initial residual = 1.20980162479e-06, Final residual = 1.96443949978e-09, No Iterations 1
smoothSolver:  Solving for Uz, Initial residual = 1.40718592801e-06, Final residual = 1.29218692528e-09, No Iterations 1
DILUPBiCGStab:  Solving for p, Initial residual = 7.19808839127e-05, Final residual = 9.99602315818e-07, No Iterations 26
time step continuity errors : sum local = 2.3716263086e-13, global = 7.90016478669e-14, cumulative = -1.65187647116e-09
DILUPBiCGStab:  Solving for p, Initial residual = 5.31551371332e-06, Final residual = 9.81314347175e-07, No Iterations 8
time step continuity errors : sum local = 2.41201944282e-13, global = 9.13666777387e-14, cumulative = -1.65178510448e-09
DILUPBiCGStab:  Solving for p, Initial residual = 1.68423509091e-06, Final residual = 9.26206246826e-07, No Iterations 1
time step continuity errors : sum local = 2.2712668326e-13, global = 9.05674694397e-14, cumulative = -1.65169453701e-09
DILUPBiCGStab:  Solving for p, Initial residual = 9.57901224807e-07, Final residual = 9.57901224807e-07, No Iterations 0
time step continuity errors : sum local = 2.35272447974e-13, global = 9.06502610462e-14, cumulative = -1.65160388675e-09
DILUPBiCGStab:  Solving for p, Initial residual = 9.60037262746e-07, Final residual = 9.60037262746e-07, No Iterations 0
time step continuity errors : sum local = 2.35815854459e-13, global = 9.06503668771e-14, cumulative = -1.65151323638e-09
smoothSolver:  Solving for omega, Initial residual = 1.02906736804e-07, Final residual = 1.02906736804e-07, No Iterations 0
smoothSolver:  Solving for k, Initial residual = 5.82760343459e-07, Final residual = 5.82760343459e-07, No Iterations 0
PIMPLE: iteration 2
smoothSolver:  Solving for Ux, Initial residual = 1.13205878522e-06, Final residual = 1.71804653029e-09, No Iterations 1
smoothSolver:  Solving for Uy, Initial residual = 3.80278782895e-07, Final residual = 3.80278782895e-07, No Iterations 0
smoothSolver:  Solving for Uz, Initial residual = 4.28069265861e-07, Final residual = 4.28069265861e-07, No Iterations 0
DILUPBiCGStab:  Solving for p, Initial residual = 2.64996232799e-05, Final residual = 9.65585468028e-07, No Iterations 8
time step continuity errors : sum local = 2.33335299744e-13, global = 6.70413691941e-14, cumulative = -1.65144619502e-09
DILUPBiCGStab:  Solving for p, Initial residual = 2.65493450611e-06, Final residual = 9.96097018252e-07, No Iterations 4
time step continuity errors : sum local = 2.3210676576e-13, global = 1.09533410149e-13, cumulative = -1.65133666161e-09
DILUPBiCGStab:  Solving for p, Initial residual = 1.15835095249e-06, Final residual = 9.17042709011e-07, No Iterations 1
time step continuity errors : sum local = 2.14294790502e-13, global = 1.07094023033e-13, cumulative = -1.65122956758e-09
DILUPBiCGStab:  Solving for p, Initial residual = 9.24123479847e-07, Final residual = 9.24123479847e-07, No Iterations 0
time step continuity errors : sum local = 2.16041921564e-13, global = 1.07106405474e-13, cumulative = -1.65112246118e-09
DILUPBiCGStab:  Solving for p, Initial residual = 9.24782916912e-07, Final residual = 9.24782916912e-07, No Iterations 0
time step continuity errors : sum local = 2.16209485864e-13, global = 1.07106254554e-13, cumulative = -1.65101535492e-09
smoothSolver:  Solving for omega, Initial residual = 1.02906736804e-07, Final residual = 1.02906736804e-07, No Iterations 0
smoothSolver:  Solving for k, Initial residual = 5.82760343459e-07, Final residual = 5.82760343459e-07, No Iterations 0
PIMPLE: iteration 3
smoothSolver:  Solving for Ux, Initial residual = 3.88939909501e-07, Final residual = 3.88939909501e-07, No Iterations 0
smoothSolver:  Solving for Uy, Initial residual = 1.30852916759e-07, Final residual = 1.30852916759e-07, No Iterations 0
smoothSolver:  Solving for Uz, Initial residual = 1.32570213847e-07, Final residual = 1.32570213847e-07, No Iterations 0
DILUPBiCGStab:  Solving for p, Initial residual = 7.49321933035e-06, Final residual = 9.62992349938e-07, No Iterations 3
time step continuity errors : sum local = 2.23819678413e-13, global = 9.29142025737e-14, cumulative = -1.65092244072e-09
DILUPBiCGStab:  Solving for p, Initial residual = 1.1768226712e-06, Final residual = 9.81490275905e-07, No Iterations 9
time step continuity errors : sum local = 2.40040214525e-13, global = 1.58529253194e-13, cumulative = -1.65076391147e-09
DILUPBiCGStab:  Solving for p, Initial residual = 1.36478760398e-06, Final residual = 9.06557284173e-07, No Iterations 3
time step continuity errors : sum local = 2.14197109009e-13, global = 1.26810126247e-13, cumulative = -1.65063710134e-09
DILUPBiCGStab:  Solving for p, Initial residual = 1.0197859216e-06, Final residual = 8.20057015758e-07, No Iterations 1
time step continuity errors : sum local = 1.91515818156e-13, global = 1.22389917457e-13, cumulative = -1.65051471142e-09
DILUPBiCGStab:  Solving for p, Initial residual = 8.27772614135e-07, Final residual = 8.27772614135e-07, No Iterations 0
time step continuity errors : sum local = 1.93456846375e-13, global = 1.22451007969e-13, cumulative = -1.65039226041e-09
smoothSolver:  Solving for omega, Initial residual = 1.02906736804e-07, Final residual = 1.02906736804e-07, No Iterations 0
smoothSolver:  Solving for k, Initial residual = 5.82760343459e-07, Final residual = 5.82760343459e-07, No Iterations 0
PIMPLE: iteration 4
smoothSolver:  Solving for Ux, Initial residual = 1.73912731852e-07, Final residual = 1.73912731852e-07, No Iterations 0
smoothSolver:  Solving for Uy, Initial residual = 5.88360475784e-08, Final residual = 5.88360475784e-08, No Iterations 0
smoothSolver:  Solving for Uz, Initial residual = 4.31207097089e-08, Final residual = 4.31207097089e-08, No Iterations 0
DILUPBiCGStab:  Solving for p, Initial residual = 2.66455856088e-06, Final residual = 7.73623461174e-07, No Iterations 1
time step continuity errors : sum local = 1.79025315745e-13, global = 1.05441415165e-13, cumulative = -1.650286819e-09
DILUPBiCGStab:  Solving for p, Initial residual = 8.28515359932e-07, Final residual = 8.28515359932e-07, No Iterations 0
time step continuity errors : sum local = 1.93519642961e-13, global = 1.07514652547e-13, cumulative = -1.65017930435e-09
DILUPBiCGStab:  Solving for p, Initial residual = 8.33301568504e-07, Final residual = 8.33301568504e-07, No Iterations 0
time step continuity errors : sum local = 1.94746418431e-13, global = 1.07545138147e-13, cumulative = -1.65007175921e-09
DILUPBiCGStab:  Solving for p, Initial residual = 8.34204152655e-07, Final residual = 8.34204152655e-07, No Iterations 0
time step continuity errors : sum local = 1.94976107446e-13, global = 1.07545543719e-13, cumulative = -1.64996421367e-09
DILUPBiCGStab:  Solving for p, Initial residual = 8.34398538877e-07, Final residual = 8.34398538877e-07, No Iterations 0
time step continuity errors : sum local = 1.95025546572e-13, global = 1.0754554989e-13, cumulative = -1.64985666812e-09
smoothSolver:  Solving for omega, Initial residual = 1.02906736804e-07, Final residual = 1.02906736804e-07, No Iterations 0
smoothSolver:  Solving for k, Initial residual = 5.82760343459e-07, Final residual = 5.82760343459e-07, No Iterations 0
PIMPLE: iteration 5
smoothSolver:  Solving for Ux, Initial residual = 1.13538389956e-07, Final residual = 1.13538389956e-07, No Iterations 0
smoothSolver:  Solving for Uy, Initial residual = 3.85511887414e-08, Final residual = 3.85511887414e-08, No Iterations 0
smoothSolver:  Solving for Uz, Initial residual = 1.63875270857e-08, Final residual = 1.63875270857e-08, No Iterations 0
DILUPBiCGStab:  Solving for p, Initial residual = 1.32561233765e-06, Final residual = 9.50536668247e-07, No Iterations 1
time step continuity errors : sum local = 2.21753033128e-13, global = 1.11343390643e-13, cumulative = -1.64974532472e-09
DILUPBiCGStab:  Solving for p, Initial residual = 9.52267493408e-07, Final residual = 9.52267493408e-07, No Iterations 0
time step continuity errors : sum local = 2.22342628553e-13, global = 1.11984948821e-13, cumulative = -1.64963333978e-09
DILUPBiCGStab:  Solving for p, Initial residual = 9.5274958034e-07, Final residual = 9.5274958034e-07, No Iterations 0
time step continuity errors : sum local = 2.22468081969e-13, global = 1.11994224187e-13, cumulative = -1.64952134555e-09
DILUPBiCGStab:  Solving for p, Initial residual = 9.52870760185e-07, Final residual = 9.52870760185e-07, No Iterations 0
time step continuity errors : sum local = 2.22498942436e-13, global = 1.11994336647e-13, cumulative = -1.64940935121e-09
DILUPBiCGStab:  Solving for p, Initial residual = 9.52902348951e-07, Final residual = 9.52902348951e-07, No Iterations 0
time step continuity errors : sum local = 2.22506976727e-13, global = 1.11994340403e-13, cumulative = -1.64929735687e-09
smoothSolver:  Solving for omega, Initial residual = 1.02906736804e-07, Final residual = 1.02906736804e-07, No Iterations 0
smoothSolver:  Solving for k, Initial residual = 5.82760343459e-07, Final residual = 5.82760343459e-07, No Iterations 0
ExecutionTime = 1025.66 s  ClockTime = 1026 s

forces forces1 write:
    Sum of forces
        Total    : (4.09020822971e-05 -2.87831459465e-05 0.000197588940935)
        Pressure : (4.28831536751e-05 -2.695993433e-05 0.000194910042306)
        Viscous  : (-1.98107137799e-06 -1.82321161649e-06 2.67889862887e-06)
    Sum of moments
        Total    : (-4.09654397392e-07 1.58832601062e-06 3.17751498022e-07)
        Pressure : (-4.07669230624e-07 1.57364941654e-06 3.05438072518e-07)
        Viscous  : (-1.98516676775e-09 1.46765940806e-08 1.23134255036e-08)
    writing force and moment files.

Courant Number mean: 0.00167548774001 max: 3.05165709836
Time = 0.0102

forces forces:
    rho: rhoInf
    Freestream density (rhoInf) set to 1.225
    Not including porosity effects

6-DoF rigid body motion
    Centre of rotation: (0 0 0)
    Centre of mass: (0 0 0)
    Orientation: (0.999863935898 -0.0164957476712 0 0.0164957476712 0.999863935898 0 0 0 1)
    Linear velocity: (0 0 0)
    Angular velocity: (0 0 2.62924803773)
inverseDistance : detected 2 mesh regions
    zone:0 nCells:54000  voxels:(30 30 30) bb:(-0.500001086566 -0.500001086566 -0.800001086566) (1.08656569061e-06 1.08656569061e-06 0.0250010865657)
    zone:1 nCells:303211  voxels:(30 30 30) bb:(-0.499979920776 -0.506089251905 -0.800001092665) (0.00713871281407 1.07288174035e-06 0.0250010926652)
